
  Mrv1903 12202014203D          

 13 13  0  0  1  0            999 V2000
   -0.9517   -2.4742   -0.1104 C   0  0  0  0  0  0  0  0  0  0  0  0
    0.0125   -1.9602    1.0000 C   0  0  1  0  0  0  0  0  0  0  0  0
    0.7912   -3.1230    1.7054 C   0  0  0  0  0  0  0  0  0  0  0  0
   -0.0661   -4.1949    2.2893 C   0  0  0  0  0  0  0  0  0  0  0  0
   -0.3873   -5.3447    1.5283 C   0  0  0  0  0  0  0  0  0  0  0  0
   -1.1946   -6.3630    2.0651 C   0  0  0  0  0  0  0  0  0  0  0  0
   -1.6826   -6.2540    3.3782 C   0  0  0  0  0  0  0  0  0  0  0  0
   -1.3733   -5.1189    4.1480 C   0  0  0  0  0  0  0  0  0  0  0  0
   -0.5744   -4.0940    3.6063 C   0  0  0  0  0  0  0  0  0  0  0  0
    0.9084   -0.9033    0.4352 C   0  0  0  0  0  0  0  0  0  0  0  0
    2.1566   -1.0281    0.4232 O   0  0  0  0  0  0  0  0  0  0  0  0
    0.3678    0.2194   -0.1004 N   0  0  0  0  0  0  0  0  0  0  0  0
    1.0833    1.1681   -0.6415 O   0  0  0  0  0  0  0  0  0  0  0  0
  1  2  1  0  0  0  0
  2  3  1  0  0  0  0
  3  4  1  0  0  0  0
  4  5  2  0  0  0  0
  5  6  1  0  0  0  0
  6  7  2  0  0  0  0
  7  8  1  0  0  0  0
  8  9  2  0  0  0  0
  4  9  1  0  0  0  0
  2 10  1  0  0  0  0
 10 11  2  0  0  0  0
 10 12  1  0  0  0  0
 12 13  1  0  0  0  0
M  END
$$$$

  Mrv1903 12202014203D          

 15 15  0  0  1  0            999 V2000
   -5.6432   -1.7142   -1.0069 C   0  0  0  0  0  0  0  0  0  0  0  0
   -4.3674   -0.8820   -1.2765 C   0  0  0  0  0  0  0  0  0  0  0  0
   -3.0905   -1.4645   -0.5916 C   0  0  2  0  0  0  0  0  0  0  0  0
   -1.8411   -0.5382   -0.7832 C   0  0  0  0  0  0  0  0  0  0  0  0
   -0.5821   -0.9509   -0.0852 C   0  0  0  0  0  0  0  0  0  0  0  0
   -0.6456   -1.9316    0.6963 O   0  0  0  0  0  0  0  0  0  0  0  0
    0.6783   -0.2782   -0.2419 C   0  0  0  0  0  0  0  0  0  0  0  0
    0.8184    0.8965   -1.0296 C   0  0  0  0  0  0  0  0  0  0  0  0
    2.0562    1.5534   -1.1547 C   0  0  0  0  0  0  0  0  0  0  0  0
    3.1898    1.0516   -0.4973 C   0  0  0  0  0  0  0  0  0  0  0  0
    3.0852   -0.1139    0.2782 C   0  0  0  0  0  0  0  0  0  0  0  0
    1.8465   -0.7710    0.4009 C   0  0  0  0  0  0  0  0  0  0  0  0
   -2.8241   -2.7702   -1.0393 N   0  3  0  0  0  0  0  0  0  0  0  0
   -2.5146   -3.0119   -2.2468 O   0  5  0  0  0  0  0  0  0  0  0  0
   -2.8741   -3.6836   -0.3131 O   0  0  0  0  0  0  0  0  0  0  0  0
  1  2  1  0  0  0  0
  2  3  1  0  0  0  0
  3  4  1  0  0  0  0
  4  5  1  0  0  0  0
  5  6  2  0  0  0  0
  5  7  1  0  0  0  0
  7  8  2  0  0  0  0
  8  9  1  0  0  0  0
  9 10  2  0  0  0  0
 10 11  1  0  0  0  0
 11 12  2  0  0  0  0
  7 12  1  0  0  0  0
  3 13  1  0  0  0  0
 13 14  1  0  0  0  0
 13 15  2  0  0  0  0
M  CHG  2  13   1  14  -1
M  END
$$$$

  Mrv1903 12202014203D          

 15 15  0  0  0  0            999 V2000
   -5.3067   -1.8989    2.0457 C   0  0  0  0  0  0  0  0  0  0  0  0
   -4.3255   -0.8869    1.4093 C   0  0  0  0  0  0  0  0  0  0  0  0
   -2.9058   -1.4833    1.1423 C   0  0  1  0  0  0  0  0  0  0  0  0
   -1.9724   -0.4804    0.3820 C   0  0  0  0  0  0  0  0  0  0  0  0
   -0.6203   -0.9840   -0.0161 C   0  0  0  0  0  0  0  0  0  0  0  0
   -0.3783   -2.2022    0.1685 O   0  0  0  0  0  0  0  0  0  0  0  0
    0.3971   -0.1625   -0.6139 C   0  0  0  0  0  0  0  0  0  0  0  0
    0.1738    1.2006   -0.9455 C   0  0  0  0  0  0  0  0  0  0  0  0
    1.1768    1.9836   -1.5487 C   0  0  0  0  0  0  0  0  0  0  0  0
    2.4319    1.4239   -1.8346 C   0  0  0  0  0  0  0  0  0  0  0  0
    2.6855    0.0822   -1.5076 C   0  0  0  0  0  0  0  0  0  0  0  0
    1.6823   -0.6987   -0.9027 C   0  0  0  0  0  0  0  0  0  0  0  0
   -2.3054   -1.9423    2.3274 N   0  3  0  0  0  0  0  0  0  0  0  0
   -2.0466   -3.1751    2.4882 O   0  5  0  0  0  0  0  0  0  0  0  0
   -2.0189   -1.2223    3.2019 O   0  0  0  0  0  0  0  0  0  0  0  0
  1  2  1  0  0  0  0
  2  3  1  0  0  0  0
  3  4  1  0  0  0  0
  4  5  1  0  0  0  0
  5  6  2  0  0  0  0
  5  7  1  0  0  0  0
  7  8  2  0  0  0  0
  8  9  1  0  0  0  0
  9 10  2  0  0  0  0
 10 11  1  0  0  0  0
 11 12  2  0  0  0  0
  7 12  1  0  0  0  0
  3 13  1  0  0  0  0
 13 14  1  0  0  0  0
 13 15  2  0  0  0  0
M  CHG  2  13   1  14  -1
M  END
$$$$

  Mrv1903 12202014203D          

 16 16  0  0  1  0            999 V2000
   -5.2664   -1.8972   -2.0684 C   0  0  0  0  0  0  0  0  0  0  0  0
   -4.3124   -0.8532   -1.4212 C   0  0  2  0  0  0  0  0  0  0  0  0
   -4.1955    0.3778   -2.3702 C   0  0  0  0  0  0  0  0  0  0  0  0
   -2.9302   -1.5046   -1.0305 C   0  0  1  0  0  0  0  0  0  0  0  0
   -1.9241   -0.4943   -0.3807 C   0  0  0  0  0  0  0  0  0  0  0  0
   -0.5598   -0.9976   -0.0407 C   0  0  0  0  0  0  0  0  0  0  0  0
   -0.2703   -2.1759   -0.3608 O   0  0  0  0  0  0  0  0  0  0  0  0
    0.4385   -0.1846    0.5961 C   0  0  0  0  0  0  0  0  0  0  0  0
    0.1969    1.1739    0.9397 C   0  0  0  0  0  0  0  0  0  0  0  0
    1.1841    1.9659    1.5521 C   0  0  0  0  0  0  0  0  0  0  0  0
    2.4447    1.4196    1.8411 C   0  0  0  0  0  0  0  0  0  0  0  0
    2.7133    0.0782    1.5212 C   0  0  0  0  0  0  0  0  0  0  0  0
    1.7215   -0.7129    0.9086 C   0  0  0  0  0  0  0  0  0  0  0  0
   -3.1158   -2.6022   -0.1631 N   0  3  0  0  0  0  0  0  0  0  0  0
   -3.6055   -2.4601    1.0006 O   0  5  0  0  0  0  0  0  0  0  0  0
   -2.8302   -3.6912   -0.4764 O   0  0  0  0  0  0  0  0  0  0  0  0
  1  2  1  0  0  0  0
  2  3  1  0  0  0  0
  2  4  1  0  0  0  0
  4  5  1  0  0  0  0
  5  6  1  0  0  0  0
  6  7  2  0  0  0  0
  6  8  1  0  0  0  0
  8  9  2  0  0  0  0
  9 10  1  0  0  0  0
 10 11  2  0  0  0  0
 11 12  1  0  0  0  0
 12 13  2  0  0  0  0
  8 13  1  0  0  0  0
  4 14  1  0  0  0  0
 14 15  1  0  0  0  0
 14 16  2  0  0  0  0
M  CHG  2  14   1  15  -1
M  END
$$$$

  Mrv1903 12202014203D          

 16 16  0  0  1  0            999 V2000
   -5.2664   -1.8972    2.0684 C   0  0  0  0  0  0  0  0  0  0  0  0
   -4.3124   -0.8532    1.4212 C   0  0  1  0  0  0  0  0  0  0  0  0
   -4.1955    0.3778    2.3702 C   0  0  0  0  0  0  0  0  0  0  0  0
   -2.9302   -1.5046    1.0305 C   0  0  2  0  0  0  0  0  0  0  0  0
   -1.9241   -0.4943    0.3807 C   0  0  0  0  0  0  0  0  0  0  0  0
   -0.5598   -0.9976    0.0407 C   0  0  0  0  0  0  0  0  0  0  0  0
   -0.2703   -2.1759    0.3608 O   0  0  0  0  0  0  0  0  0  0  0  0
    0.4385   -0.1846   -0.5961 C   0  0  0  0  0  0  0  0  0  0  0  0
    0.1969    1.1739   -0.9397 C   0  0  0  0  0  0  0  0  0  0  0  0
    1.1841    1.9659   -1.5521 C   0  0  0  0  0  0  0  0  0  0  0  0
    2.4447    1.4196   -1.8411 C   0  0  0  0  0  0  0  0  0  0  0  0
    2.7133    0.0782   -1.5212 C   0  0  0  0  0  0  0  0  0  0  0  0
    1.7215   -0.7129   -0.9086 C   0  0  0  0  0  0  0  0  0  0  0  0
   -3.1158   -2.6022    0.1631 N   0  3  0  0  0  0  0  0  0  0  0  0
   -3.6055   -2.4601   -1.0006 O   0  5  0  0  0  0  0  0  0  0  0  0
   -2.8302   -3.6912    0.4764 O   0  0  0  0  0  0  0  0  0  0  0  0
  1  2  1  0  0  0  0
  2  3  1  0  0  0  0
  2  4  1  0  0  0  0
  4  5  1  0  0  0  0
  5  6  1  0  0  0  0
  6  7  2  0  0  0  0
  6  8  1  0  0  0  0
  8  9  2  0  0  0  0
  9 10  1  0  0  0  0
 10 11  2  0  0  0  0
 11 12  1  0  0  0  0
 12 13  2  0  0  0  0
  8 13  1  0  0  0  0
  4 14  1  0  0  0  0
 14 15  1  0  0  0  0
 14 16  2  0  0  0  0
M  CHG  2  14   1  15  -1
M  END
$$$$

  Mrv1903 12202014203D          

 18 19  0  0  0  0            999 V2000
    1.2662    0.1985   -0.3067 O   0  0  0  0  0  0  0  0  0  0  0  0
   -0.0384    0.2166   -0.2294 N   0  0  0  0  0  0  0  0  0  0  0  0
   -0.7428   -0.7787    0.3580 C   0  0  0  0  0  0  0  0  0  0  0  0
   -0.1382   -1.7397    0.8904 O   0  0  0  0  0  0  0  0  0  0  0  0
   -2.2248   -0.7691    0.3553 C   0  0  0  0  0  0  0  0  0  0  0  0
   -2.8889    0.4078    1.1444 C   0  0  2  0  0  0  0  0  0  0  0  0
   -2.4075    0.4916    2.5615 C   0  0  0  0  0  0  0  0  0  0  0  0
   -1.6394    1.6022    2.9895 C   0  0  0  0  0  0  0  0  0  0  0  0
   -1.1627    1.6893    4.3086 C   0  0  0  0  0  0  0  0  0  0  0  0
   -1.4533    0.6671    5.2282 C   0  0  0  0  0  0  0  0  0  0  0  0
   -2.2167   -0.4432    4.8280 C   0  0  0  0  0  0  0  0  0  0  0  0
   -2.6877   -0.5291    3.5052 C   0  0  0  0  0  0  0  0  0  0  0  0
   -4.3938    0.4375    1.1111 C   0  0  0  0  0  0  0  0  0  0  0  0
   -5.0700    1.6844    1.0909 C   0  0  0  0  0  0  0  0  0  0  0  0
   -6.4749    1.7520    1.0803 C   0  0  0  0  0  0  0  0  0  0  0  0
   -7.2345    0.5698    1.0997 C   0  0  0  0  0  0  0  0  0  0  0  0
   -6.5899   -0.6783    1.1251 C   0  0  0  0  0  0  0  0  0  0  0  0
   -5.1853   -0.7410    1.1382 C   0  0  0  0  0  0  0  0  0  0  0  0
  1  2  1  0  0  0  0
  2  3  1  0  0  0  0
  3  4  2  0  0  0  0
  3  5  1  0  0  0  0
  5  6  1  0  0  0  0
  6  7  1  0  0  0  0
  7  8  2  0  0  0  0
  8  9  1  0  0  0  0
  9 10  2  0  0  0  0
 10 11  1  0  0  0  0
 11 12  2  0  0  0  0
  7 12  1  0  0  0  0
  6 13  1  0  0  0  0
 13 14  2  0  0  0  0
 14 15  1  0  0  0  0
 15 16  2  0  0  0  0
 16 17  1  0  0  0  0
 17 18  2  0  0  0  0
 13 18  1  0  0  0  0
M  END
$$$$

  Mrv1903 12202014203D          

 13 13  0  0  0  0            999 V2000
   -0.9773   -2.6446   -0.0644 C   0  0  0  0  0  0  0  0  0  0  0  0
   -0.1244   -1.9826    1.0540 C   0  0  2  0  0  0  0  0  0  0  0  0
   -1.0285   -1.3651    2.1692 C   0  0  0  0  0  0  0  0  0  0  0  0
   -0.2491   -0.7874    3.3002 C   0  0  0  0  0  0  0  0  0  0  0  0
    0.1201    0.5782    3.2899 C   0  0  0  0  0  0  0  0  0  0  0  0
    0.8975    1.1203    4.3286 C   0  0  0  0  0  0  0  0  0  0  0  0
    1.3081    0.3051    5.3970 C   0  0  0  0  0  0  0  0  0  0  0  0
    0.9316   -1.0485    5.4336 C   0  0  0  0  0  0  0  0  0  0  0  0
    0.1592   -1.5926    4.3901 C   0  0  0  0  0  0  0  0  0  0  0  0
    0.8288   -1.0057    0.4583 C   0  0  0  0  0  0  0  0  0  0  0  0
    2.0613   -1.2275    0.5299 O   0  0  0  0  0  0  0  0  0  0  0  0
    0.3841    0.1076   -0.1721 N   0  0  0  0  0  0  0  0  0  0  0  0
    1.1928    0.9751   -0.7171 O   0  0  0  0  0  0  0  0  0  0  0  0
  1  2  1  0  0  0  0
  2  3  1  0  0  0  0
  3  4  1  0  0  0  0
  4  5  2  0  0  0  0
  5  6  1  0  0  0  0
  6  7  2  0  0  0  0
  7  8  1  0  0  0  0
  8  9  2  0  0  0  0
  4  9  1  0  0  0  0
  2 10  1  0  0  0  0
 10 11  2  0  0  0  0
 10 12  1  0  0  0  0
 12 13  1  0  0  0  0
M  END
$$$$

  Mrv1903 12202014203D          

 22 23  0  0  1  0            999 V2000
   -0.0755   -0.7510    0.5709 C   0  0  0  0  0  0  0  0  0  0  0  0
    1.2591   -0.3714    0.0491 C   0  0  0  0  0  0  0  0  0  0  0  0
    1.4593    0.8244   -0.6616 C   0  0  0  0  0  0  0  0  0  0  0  0
    2.7332    1.1956   -1.1483 C   0  0  0  0  0  0  0  0  0  0  0  0
    3.8623    0.3497   -0.8945 C   0  0  0  0  0  0  0  0  0  0  0  0
    5.2332    0.8106   -1.3091 C   0  0  0  0  0  0  0  0  0  0  0  0
    5.9220    1.6499   -0.1768 C   0  0  2  0  0  0  0  0  0  0  0  0
    6.7796    2.7134   -0.5998 N   0  0  0  0  0  0  0  0  0  0  0  0
    7.6912    2.7196   -1.6094 C   0  0  0  0  0  0  0  0  0  0  0  0
    7.8759    1.7131   -2.3330 O   0  0  0  0  0  0  0  0  0  0  0  0
    8.5137    3.9326   -1.8477 C   0  0  2  0  0  0  0  0  0  0  0  0
    9.6262    4.1089   -0.7937 C   0  0  0  0  0  0  0  0  0  0  0  0
   10.0582    5.5771   -0.9528 C   0  0  0  0  0  0  0  0  0  0  0  0
    8.7847    6.3440   -1.3710 C   0  0  0  0  0  0  0  0  0  0  0  0
    7.7551    5.2862   -1.8337 C   0  0  0  0  0  0  0  0  0  0  0  0
    6.6516    0.8261    0.8092 C   0  0  0  0  0  0  0  0  0  0  0  0
    6.2323    0.7668    2.0947 O   0  0  0  0  0  0  0  0  0  0  0  0
    7.6599    0.1625    0.4753 O   0  0  0  0  0  0  0  0  0  0  0  0
    3.6639   -0.8761   -0.1797 C   0  0  0  0  0  0  0  0  0  0  0  0
    2.3641   -1.2125    0.2678 C   0  0  0  0  0  0  0  0  0  0  0  0
    4.7226   -1.8671    0.1754 C   0  0  0  0  0  0  0  0  0  0  0  0
    2.8278    2.4757   -1.9134 C   0  0  0  0  0  0  0  0  0  0  0  0
  1  2  1  0  0  0  0
  2  3  2  0  0  0  0
  3  4  1  0  0  0  0
  4  5  2  0  0  0  0
  5  6  1  0  0  0  0
  6  7  1  0  0  0  0
  7  8  1  0  0  0  0
  8  9  1  0  0  0  0
  9 10  2  0  0  0  0
  9 11  1  0  0  0  0
 11 12  1  0  0  0  0
 12 13  1  0  0  0  0
 13 14  1  0  0  0  0
 14 15  1  0  0  0  0
 11 15  1  0  0  0  0
  7 16  1  0  0  0  0
 16 17  1  0  0  0  0
 16 18  2  0  0  0  0
  5 19  1  0  0  0  0
 19 20  2  0  0  0  0
  2 20  1  0  0  0  0
 19 21  1  0  0  0  0
  4 22  1  0  0  0  0
M  END
$$$$

  Mrv1903 12202014203D          

 22 23  0  0  1  0            999 V2000
   -0.0134   -0.3484    0.4452 C   0  0  0  0  0  0  0  0  0  0  0  0
    1.3580   -0.1856   -0.0979 C   0  0  0  0  0  0  0  0  0  0  0  0
    1.6828    0.8633   -0.9760 C   0  0  0  0  0  0  0  0  0  0  0  0
    2.9908    1.0304   -1.4914 C   0  0  0  0  0  0  0  0  0  0  0  0
    4.0251    0.1186   -1.0943 C   0  0  0  0  0  0  0  0  0  0  0  0
    5.4392    0.3196   -1.5767 C   0  0  0  0  0  0  0  0  0  0  0  0
    6.2495    1.3787   -0.7601 C   0  0  1  0  0  0  0  0  0  0  0  0
    6.5589    0.8770    0.5464 N   0  0  0  0  0  0  0  0  0  0  0  0
    5.9618    1.1660    1.7382 C   0  0  0  0  0  0  0  0  0  0  0  0
    6.4757    0.5865    2.7216 O   0  0  0  0  0  0  0  0  0  0  0  0
    4.7969    2.0745    1.9363 C   0  0  2  0  0  0  0  0  0  0  0  0
    5.2044    3.5580    2.0361 C   0  0  0  0  0  0  0  0  0  0  0  0
    3.9416    4.2542    2.5730 C   0  0  0  0  0  0  0  0  0  0  0  0
    3.2790    3.2230    3.5118 C   0  0  0  0  0  0  0  0  0  0  0  0
    3.9643    1.8661    3.2277 C   0  0  0  0  0  0  0  0  0  0  0  0
    7.5439    1.7407   -1.3912 C   0  0  0  0  0  0  0  0  0  0  0  0
    8.0092    1.1371   -2.5128 O   0  0  0  0  0  0  0  0  0  0  0  0
    8.2550    2.6433   -0.8918 O   0  0  0  0  0  0  0  0  0  0  0  0
    3.6902   -0.9774   -0.2321 C   0  0  0  0  0  0  0  0  0  0  0  0
    2.3678   -1.0961    0.2596 C   0  0  0  0  0  0  0  0  0  0  0  0
    4.6674   -2.0332    0.1710 C   0  0  0  0  0  0  0  0  0  0  0  0
    3.2064    2.1609   -2.4475 C   0  0  0  0  0  0  0  0  0  0  0  0
  1  2  1  0  0  0  0
  2  3  2  0  0  0  0
  3  4  1  0  0  0  0
  4  5  2  0  0  0  0
  5  6  1  0  0  0  0
  6  7  1  0  0  0  0
  7  8  1  0  0  0  0
  8  9  1  0  0  0  0
  9 10  2  0  0  0  0
  9 11  1  0  0  0  0
 11 12  1  0  0  0  0
 12 13  1  0  0  0  0
 13 14  1  0  0  0  0
 14 15  1  0  0  0  0
 11 15  1  0  0  0  0
  7 16  1  0  0  0  0
 16 17  1  0  0  0  0
 16 18  2  0  0  0  0
  5 19  1  0  0  0  0
 19 20  2  0  0  0  0
  2 20  1  0  0  0  0
 19 21  1  0  0  0  0
  4 22  1  0  0  0  0
M  END
$$$$

  Mrv1903 12202014203D          

 13 13  0  0  0  0            999 V2000
    0.9034    0.4355    2.2986 O   0  5  0  0  0  0  0  0  0  0  0  0
   -0.1452    0.4681    1.5836 N   0  3  0  0  0  0  0  0  0  0  0  0
   -1.1577    0.6941    2.1218 O   0  0  0  0  0  0  0  0  0  0  0  0
   -0.0901    0.1936    0.2133 C   0  0  0  0  0  0  0  0  0  0  0  0
   -0.2501   -1.3298   -0.0445 C   0  0  0  0  0  0  0  0  0  0  0  0
   -0.2065   -1.7679   -1.4674 C   0  0  0  0  0  0  0  0  0  0  0  0
   -0.0418   -0.8874   -2.3465 O   0  0  0  0  0  0  0  0  0  0  0  0
   -0.3437   -3.1368   -1.8749 C   0  0  0  0  0  0  0  0  0  0  0  0
   -0.5331   -4.1926   -0.9422 C   0  0  0  0  0  0  0  0  0  0  0  0
   -0.6655   -5.5308   -1.3623 C   0  0  0  0  0  0  0  0  0  0  0  0
   -0.6118   -5.8462   -2.7300 C   0  0  0  0  0  0  0  0  0  0  0  0
   -0.4261   -4.8243   -3.6742 C   0  0  0  0  0  0  0  0  0  0  0  0
   -0.2944   -3.4900   -3.2495 C   0  0  0  0  0  0  0  0  0  0  0  0
  1  2  1  0  0  0  0
  2  3  2  0  0  0  0
  2  4  1  0  0  0  0
  4  5  1  0  0  0  0
  5  6  1  0  0  0  0
  6  7  2  0  0  0  0
  6  8  1  0  0  0  0
  8  9  2  0  0  0  0
  9 10  1  0  0  0  0
 10 11  2  0  0  0  0
 11 12  1  0  0  0  0
 12 13  2  0  0  0  0
  8 13  1  0  0  0  0
M  CHG  2   1  -1   2   1
M  END
$$$$

  Mrv1903 12202014203D          

 13 13  0  0  1  0            999 V2000
    1.5191    3.1032   -0.8526 C   0  0  0  0  0  0  0  0  0  0  0  0
    1.1799    3.3287    0.6408 C   0  0  0  0  0  0  0  0  0  0  0  0
   -0.1295    4.1494    0.8693 C   0  0  1  0  0  0  0  0  0  0  0  0
   -1.3129    3.5072    0.2284 C   0  0  0  0  0  0  0  0  0  0  0  0
   -1.8737    2.5158    0.7529 O   0  0  0  0  0  0  0  0  0  0  0  0
   -1.7394    3.9521   -0.9809 N   0  0  0  0  0  0  0  0  0  0  0  0
   -2.7177    3.3888   -1.6344 O   0  0  0  0  0  0  0  0  0  0  0  0
   -0.3336    4.4640    2.3237 C   0  0  0  0  0  0  0  0  0  0  0  0
   -0.4884    3.4418    3.2952 C   0  0  0  0  0  0  0  0  0  0  0  0
   -0.6225    3.7513    4.6610 C   0  0  0  0  0  0  0  0  0  0  0  0
   -0.6120    5.0909    5.0827 C   0  0  0  0  0  0  0  0  0  0  0  0
   -0.4765    6.1196    4.1369 C   0  0  0  0  0  0  0  0  0  0  0  0
   -0.3417    5.8084    2.7717 C   0  0  0  0  0  0  0  0  0  0  0  0
  1  2  1  0  0  0  0
  2  3  1  0  0  0  0
  3  4  1  0  0  0  0
  4  5  2  0  0  0  0
  4  6  1  0  0  0  0
  6  7  1  0  0  0  0
  3  8  1  0  0  0  0
  8  9  2  0  0  0  0
  9 10  1  0  0  0  0
 10 11  2  0  0  0  0
 11 12  1  0  0  0  0
 12 13  2  0  0  0  0
  8 13  1  0  0  0  0
M  END
$$$$

  Mrv1903 12202014203D          

 21 22  0  0  1  0            999 V2000
    3.8825    2.4532   -1.8761 C   0  0  0  0  0  0  0  0  0  0  0  0
    3.5120    1.2837   -1.0458 C   0  0  0  0  0  0  0  0  0  0  0  0
    2.1610    1.0443   -0.7223 C   0  0  0  0  0  0  0  0  0  0  0  0
    1.7587   -0.0557    0.0799 C   0  0  0  0  0  0  0  0  0  0  0  0
    2.7618   -0.9492    0.5704 C   0  0  0  0  0  0  0  0  0  0  0  0
    2.5131   -2.1458    1.4213 C   0  0  0  0  0  0  0  0  0  0  0  0
    4.1160   -0.6983    0.2412 C   0  0  0  0  0  0  0  0  0  0  0  0
    4.4872    0.3947   -0.5560 C   0  0  0  0  0  0  0  0  0  0  0  0
    0.2869   -0.1918    0.3320 C   0  0  0  0  0  0  0  0  0  0  0  0
   -0.4655   -0.8810   -0.8569 C   0  0  2  0  0  0  0  0  0  0  0  0
   -1.8601   -0.5848   -1.0205 N   0  0  0  0  0  0  0  0  0  0  0  0
   -2.7937   -0.2733   -0.0784 C   0  0  0  0  0  0  0  0  0  0  0  0
   -2.5103   -0.2370    1.1417 O   0  0  0  0  0  0  0  0  0  0  0  0
   -4.1873    0.0321   -0.4933 C   0  0  2  0  0  0  0  0  0  0  0  0
   -4.9765   -1.1991   -0.9869 C   0  0  0  0  0  0  0  0  0  0  0  0
   -6.1680   -0.5898   -1.7472 C   0  0  0  0  0  0  0  0  0  0  0  0
   -5.6234    0.7005   -2.3963 C   0  0  0  0  0  0  0  0  0  0  0  0
   -4.3199    1.0607   -1.6468 C   0  0  0  0  0  0  0  0  0  0  0  0
   -0.3023   -2.3469   -0.8782 C   0  0  0  0  0  0  0  0  0  0  0  0
    0.3574   -2.9476   -1.8952 O   0  0  0  0  0  0  0  0  0  0  0  0
   -0.7858   -3.0606    0.0291 O   0  0  0  0  0  0  0  0  0  0  0  0
  1  2  1  0  0  0  0
  2  3  2  0  0  0  0
  3  4  1  0  0  0  0
  4  5  2  0  0  0  0
  5  6  1  0  0  0  0
  5  7  1  0  0  0  0
  7  8  2  0  0  0  0
  2  8  1  0  0  0  0
  4  9  1  0  0  0  0
  9 10  1  0  0  0  0
 10 11  1  0  0  0  0
 11 12  1  0  0  0  0
 12 13  2  0  0  0  0
 12 14  1  0  0  0  0
 14 15  1  0  0  0  0
 15 16  1  0  0  0  0
 16 17  1  0  0  0  0
 17 18  1  0  0  0  0
 14 18  1  0  0  0  0
 10 19  1  0  0  0  0
 19 20  1  0  0  0  0
 19 21  2  0  0  0  0
M  END
$$$$

  Mrv1903 12202014203D          

 14 14  0  0  1  0            999 V2000
    1.0999    2.5939   -2.7960 C   0  0  0  0  0  0  0  0  0  0  0  0
    1.9794    1.6578   -1.9192 C   0  0  1  0  0  0  0  0  0  0  0  0
    1.1300    0.6369   -1.0872 C   0  0  0  0  0  0  0  0  0  0  0  0
    0.2965    1.2750   -0.0266 C   0  0  0  0  0  0  0  0  0  0  0  0
   -0.9436    1.2661   -0.2241 O   0  0  0  0  0  0  0  0  0  0  0  0
    0.8187    1.8931    1.1584 C   0  0  0  0  0  0  0  0  0  0  0  0
    2.1865    1.7874    1.5291 C   0  0  0  0  0  0  0  0  0  0  0  0
    2.6843    2.4113    2.6872 C   0  0  0  0  0  0  0  0  0  0  0  0
    1.8219    3.1428    3.5186 C   0  0  0  0  0  0  0  0  0  0  0  0
    0.4622    3.2522    3.1871 C   0  0  0  0  0  0  0  0  0  0  0  0
   -0.0305    2.6387    2.0201 C   0  0  0  0  0  0  0  0  0  0  0  0
    2.9447    1.0126   -2.7143 N   0  3  0  0  0  0  0  0  0  0  0  0
    4.1721    1.3439   -2.6708 O   0  5  0  0  0  0  0  0  0  0  0  0
    2.6567    0.1841   -3.4859 O   0  0  0  0  0  0  0  0  0  0  0  0
  1  2  1  0  0  0  0
  2  3  1  0  0  0  0
  3  4  1  0  0  0  0
  4  5  2  0  0  0  0
  4  6  1  0  0  0  0
  6  7  2  0  0  0  0
  7  8  1  0  0  0  0
  8  9  2  0  0  0  0
  9 10  1  0  0  0  0
 10 11  2  0  0  0  0
  6 11  1  0  0  0  0
  2 12  1  0  0  0  0
 12 13  1  0  0  0  0
 12 14  2  0  0  0  0
M  CHG  2  12   1  13  -1
M  END
$$$$

  Mrv1903 12202014203D          

 14 14  0  0  1  0            999 V2000
    1.0345    2.5941   -3.0998 C   0  0  0  0  0  0  0  0  0  0  0  0
    1.4234    1.4956   -2.0717 C   0  0  2  0  0  0  0  0  0  0  0  0
    1.5744    2.0615   -0.6241 C   0  0  0  0  0  0  0  0  0  0  0  0
    1.7321    0.9843    0.3921 C   0  0  0  0  0  0  0  0  0  0  0  0
    2.9139    0.7596    0.7517 O   0  0  0  0  0  0  0  0  0  0  0  0
    0.6610    0.2114    0.9561 C   0  0  0  0  0  0  0  0  0  0  0  0
   -0.7062    0.4614    0.6574 C   0  0  0  0  0  0  0  0  0  0  0  0
   -1.7374   -0.2844    1.2604 C   0  0  0  0  0  0  0  0  0  0  0  0
   -1.4250   -1.3073    2.1705 C   0  0  0  0  0  0  0  0  0  0  0  0
   -0.0830   -1.5942    2.4646 C   0  0  0  0  0  0  0  0  0  0  0  0
    0.9433   -0.8453    1.8637 C   0  0  0  0  0  0  0  0  0  0  0  0
    2.5916    0.8245   -2.4794 N   0  3  0  0  0  0  0  0  0  0  0  0
    3.7040    1.4316   -2.5811 O   0  5  0  0  0  0  0  0  0  0  0  0
    2.5888   -0.3161   -2.7322 O   0  0  0  0  0  0  0  0  0  0  0  0
  1  2  1  0  0  0  0
  2  3  1  0  0  0  0
  3  4  1  0  0  0  0
  4  5  2  0  0  0  0
  4  6  1  0  0  0  0
  6  7  2  0  0  0  0
  7  8  1  0  0  0  0
  8  9  2  0  0  0  0
  9 10  1  0  0  0  0
 10 11  2  0  0  0  0
  6 11  1  0  0  0  0
  2 12  1  0  0  0  0
 12 13  1  0  0  0  0
 12 14  2  0  0  0  0
M  CHG  2  12   1  13  -1
M  END
$$$$

  Mrv1903 12202014203D          

 21 22  0  0  0  0            999 V2000
    6.3939    1.8438    0.7735 C   0  0  0  0  0  0  0  0  0  0  0  0
    4.8422    1.9040    0.7662 C   0  0  2  0  0  0  0  0  0  0  0  0
    4.2322    0.9378    1.8292 C   0  0  0  0  0  0  0  0  0  0  0  0
    2.6813    0.9021    1.7809 C   0  0  0  0  0  0  0  0  0  0  0  0
    2.1550    0.5909    0.3459 C   0  0  2  0  0  0  0  0  0  0  0  0
    2.7351    1.5934   -0.6939 C   0  0  0  0  0  0  0  0  0  0  0  0
    4.2851    1.6094   -0.6603 C   0  0  0  0  0  0  0  0  0  0  0  0
    0.6705    0.5559    0.2732 C   0  0  0  0  0  0  0  0  0  0  0  0
    0.1090   -0.4508   -0.2224 O   0  0  0  0  0  0  0  0  0  0  0  0
   -0.0620    1.6146    0.7284 N   0  0  0  0  0  0  0  0  0  0  0  0
   -1.4924    1.7356    0.7148 C   0  0  2  0  0  0  0  0  0  0  0  0
   -1.9566    3.0725    1.3659 C   0  0  0  0  0  0  0  0  0  0  0  0
   -1.3466    4.2902    0.7582 C   0  0  0  0  0  0  0  0  0  0  0  0
   -1.9196    4.9034   -0.3819 C   0  0  0  0  0  0  0  0  0  0  0  0
   -1.3457    6.0635   -0.9395 C   0  0  0  0  0  0  0  0  0  0  0  0
   -0.1878    6.6225   -0.3692 C   0  0  0  0  0  0  0  0  0  0  0  0
    0.3975    6.0192    0.7577 C   0  0  0  0  0  0  0  0  0  0  0  0
   -0.1796    4.8641    1.3184 C   0  0  0  0  0  0  0  0  0  0  0  0
   -2.1309    0.5945    1.4164 C   0  0  0  0  0  0  0  0  0  0  0  0
   -1.6872    0.1923    2.6326 O   0  0  0  0  0  0  0  0  0  0  0  0
   -3.0739   -0.0358    0.8883 O   0  0  0  0  0  0  0  0  0  0  0  0
  1  2  1  0  0  0  0
  2  3  1  0  0  0  0
  3  4  1  0  0  0  0
  4  5  1  0  0  0  0
  5  6  1  0  0  0  0
  6  7  1  0  0  0  0
  2  7  1  0  0  0  0
  5  8  1  0  0  0  0
  8  9  2  0  0  0  0
  8 10  1  0  0  0  0
 10 11  1  0  0  0  0
 11 12  1  0  0  0  0
 12 13  1  0  0  0  0
 13 14  2  0  0  0  0
 14 15  1  0  0  0  0
 15 16  2  0  0  0  0
 16 17  1  0  0  0  0
 17 18  2  0  0  0  0
 13 18  1  0  0  0  0
 11 19  1  0  0  0  0
 19 20  1  0  0  0  0
 19 21  2  0  0  0  0
M  END
$$$$
