C14H11ClN2O4
APtclcactv12202015312D 0   0.00000     0.00000     1
 
 32 33  0  0  0  0  0  0  0  0999 V2000
    3.7321    0.7500    0.0000 O   0  0  0  0  0  0  0  0  0  0  0  0
    4.5981    0.2500    0.0000 C   0  0  0  0  0  0  0  0  0  0  0  0
    4.5981   -0.7500    0.0000 C   0  0  0  0  0  0  0  0  0  0  0  0
    5.4641   -1.2500    0.0000 C   0  0  0  0  0  0  0  0  0  0  0  0
    5.4641   -2.2500    0.0000 C   0  0  0  0  0  0  0  0  0  0  0  0
    4.5981   -2.7500    0.0000 C   0  0  0  0  0  0  0  0  0  0  0  0
    3.7321   -2.2500    0.0000 C   0  0  0  0  0  0  0  0  0  0  0  0
    3.7321   -1.2500    0.0000 C   0  0  0  0  0  0  0  0  0  0  0  0
    2.8660   -0.7500    0.0000 O   0  0  0  0  0  0  0  0  0  0  0  0
    2.8660   -2.7500    0.0000 N   0  3  0  0  0  0  0  0  0  0  0  0
    2.0000   -2.2500    0.0000 O   0  0  0  0  0  0  0  0  0  0  0  0
    2.8660   -3.7500    0.0000 O   0  5  0  0  0  0  0  0  0  0  0  0
    5.4641    0.7500    0.0000 N   0  0  0  0  0  0  0  0  0  0  0  0
    5.4641    1.7500    0.0000 C   0  0  0  0  0  0  0  0  0  0  0  0
    6.3301    2.2500    0.0000 C   0  0  0  0  0  0  0  0  0  0  0  0
    7.1962    1.7500    0.0000 C   0  0  0  0  0  0  0  0  0  0  0  0
    6.3301    3.2500    0.0000 C   0  0  0  0  0  0  0  0  0  0  0  0
    5.4641    3.7500    0.0000 C   0  0  0  0  0  0  0  0  0  0  0  0
    4.5981    3.2500    0.0000 C   0  0  0  0  0  0  0  0  0  0  0  0
    4.5981    2.2500    0.0000 C   0  0  0  0  0  0  0  0  0  0  0  0
    3.7321    1.7500    0.0000 Cl  0  0  0  0  0  0  0  0  0  0  0  0
    6.0010   -0.9400    0.0000 H   0  0  0  0  0  0  0  0  0  0  0  0
    6.0010   -2.5600    0.0000 H   0  0  0  0  0  0  0  0  0  0  0  0
    4.5981   -3.3700    0.0000 H   0  0  0  0  0  0  0  0  0  0  0  0
    2.3291   -1.0600    0.0000 H   0  0  0  0  0  0  0  0  0  0  0  0
    6.0010    0.4400    0.0000 H   0  0  0  0  0  0  0  0  0  0  0  0
    6.8862    1.2131    0.0000 H   0  0  0  0  0  0  0  0  0  0  0  0
    7.7331    1.4400    0.0000 H   0  0  0  0  0  0  0  0  0  0  0  0
    7.5062    2.2869    0.0000 H   0  0  0  0  0  0  0  0  0  0  0  0
    6.8671    3.5600    0.0000 H   0  0  0  0  0  0  0  0  0  0  0  0
    5.4641    4.3700    0.0000 H   0  0  0  0  0  0  0  0  0  0  0  0
    4.0611    3.5600    0.0000 H   0  0  0  0  0  0  0  0  0  0  0  0
  1  2  2  0  0  0  0
  2  3  1  0  0  0  0
  3  4  1  0  0  0  0
  4  5  2  0  0  0  0
  5  6  1  0  0  0  0
  6  7  2  0  0  0  0
  7  8  1  0  0  0  0
  3  8  2  0  0  0  0
  8  9  1  0  0  0  0
  7 10  1  0  0  0  0
 10 11  2  0  0  0  0
 10 12  1  0  0  0  0
  2 13  1  0  0  0  0
 13 14  1  0  0  0  0
 14 15  1  0  0  0  0
 15 16  1  0  0  0  0
 15 17  2  0  0  0  0
 17 18  1  0  0  0  0
 18 19  2  0  0  0  0
 19 20  1  0  0  0  0
 14 20  2  0  0  0  0
 20 21  1  0  0  0  0
  4 22  1  0  0  0  0
  5 23  1  0  0  0  0
  6 24  1  0  0  0  0
  9 25  1  0  0  0  0
 13 26  1  0  0  0  0
 16 27  1  0  0  0  0
 16 28  1  0  0  0  0
 16 29  1  0  0  0  0
 17 30  1  0  0  0  0
 18 31  1  0  0  0  0
 19 32  1  0  0  0  0
M  CHG  2  10   1  12  -1
M  END
> <UNIQUE_SMILES>
CC1=CC=CC(=C1NC(=O)C2=C(O)C(=CC=C2)[N+]([O-])=O)Cl

> <USER_SUPPLIED_SMILES>
O=C(c1cccc(c1O)[N+](=O)[O-])Nc1c(C)cccc1Cl

$$$$
C14H11ClN2O4
APtclcactv12202015312D 0   0.00000     0.00000     2
 
 32 33  0  0  0  0  0  0  0  0999 V2000
    6.3301   -2.7500    0.0000 Cl  0  0  0  0  0  0  0  0  0  0  0  0
    5.4641   -2.2500    0.0000 C   0  0  0  0  0  0  0  0  0  0  0  0
    5.4641   -1.2500    0.0000 C   0  0  0  0  0  0  0  0  0  0  0  0
    4.5981   -0.7500    0.0000 C   0  0  0  0  0  0  0  0  0  0  0  0
    4.5981    0.2500    0.0000 C   0  0  0  0  0  0  0  0  0  0  0  0
    3.7321    0.7500    0.0000 O   0  0  0  0  0  0  0  0  0  0  0  0
    5.4641    0.7500    0.0000 N   0  0  0  0  0  0  0  0  0  0  0  0
    5.4641    1.7500    0.0000 C   0  0  0  0  0  0  0  0  0  0  0  0
    4.5981    2.2500    0.0000 C   0  0  0  0  0  0  0  0  0  0  0  0
    4.5981    3.2500    0.0000 C   0  0  0  0  0  0  0  0  0  0  0  0
    5.4641    3.7500    0.0000 C   0  0  0  0  0  0  0  0  0  0  0  0
    6.3301    3.2500    0.0000 C   0  0  0  0  0  0  0  0  0  0  0  0
    6.3301    2.2500    0.0000 C   0  0  0  0  0  0  0  0  0  0  0  0
    7.1962    1.7500    0.0000 C   0  0  0  0  0  0  0  0  0  0  0  0
    3.7321   -1.2500    0.0000 C   0  0  0  0  0  0  0  0  0  0  0  0
    3.7321   -2.2500    0.0000 C   0  0  0  0  0  0  0  0  0  0  0  0
    4.5981   -2.7500    0.0000 C   0  0  0  0  0  0  0  0  0  0  0  0
    2.8660   -2.7500    0.0000 N   0  3  0  0  0  0  0  0  0  0  0  0
    2.0000   -2.2500    0.0000 O   0  0  0  0  0  0  0  0  0  0  0  0
    2.8660   -3.7500    0.0000 O   0  5  0  0  0  0  0  0  0  0  0  0
    2.8660   -0.7500    0.0000 O   0  0  0  0  0  0  0  0  0  0  0  0
    6.0010   -0.9400    0.0000 H   0  0  0  0  0  0  0  0  0  0  0  0
    6.0010    0.4400    0.0000 H   0  0  0  0  0  0  0  0  0  0  0  0
    4.0611    1.9400    0.0000 H   0  0  0  0  0  0  0  0  0  0  0  0
    4.0611    3.5600    0.0000 H   0  0  0  0  0  0  0  0  0  0  0  0
    5.4641    4.3700    0.0000 H   0  0  0  0  0  0  0  0  0  0  0  0
    6.8671    3.5600    0.0000 H   0  0  0  0  0  0  0  0  0  0  0  0
    6.8862    1.2131    0.0000 H   0  0  0  0  0  0  0  0  0  0  0  0
    7.7331    1.4400    0.0000 H   0  0  0  0  0  0  0  0  0  0  0  0
    7.5062    2.2869    0.0000 H   0  0  0  0  0  0  0  0  0  0  0  0
    4.5981   -3.3700    0.0000 H   0  0  0  0  0  0  0  0  0  0  0  0
    2.3291   -1.0600    0.0000 H   0  0  0  0  0  0  0  0  0  0  0  0
  1  2  1  0  0  0  0
  2  3  1  0  0  0  0
  3  4  2  0  0  0  0
  4  5  1  0  0  0  0
  5  6  2  0  0  0  0
  5  7  1  0  0  0  0
  7  8  1  0  0  0  0
  8  9  1  0  0  0  0
  9 10  2  0  0  0  0
 10 11  1  0  0  0  0
 11 12  2  0  0  0  0
 12 13  1  0  0  0  0
  8 13  2  0  0  0  0
 13 14  1  0  0  0  0
  4 15  1  0  0  0  0
 15 16  2  0  0  0  0
 16 17  1  0  0  0  0
  2 17  2  0  0  0  0
 16 18  1  0  0  0  0
 18 19  2  0  0  0  0
 18 20  1  0  0  0  0
 15 21  1  0  0  0  0
  3 22  1  0  0  0  0
  7 23  1  0  0  0  0
  9 24  1  0  0  0  0
 10 25  1  0  0  0  0
 11 26  1  0  0  0  0
 12 27  1  0  0  0  0
 14 28  1  0  0  0  0
 14 29  1  0  0  0  0
 14 30  1  0  0  0  0
 17 31  1  0  0  0  0
 21 32  1  0  0  0  0
M  CHG  2  18   1  20  -1
M  END
> <UNIQUE_SMILES>
CC1=C(NC(=O)C2=CC(=CC(=C2O)[N+]([O-])=O)Cl)C=CC=C1

> <USER_SUPPLIED_SMILES>
Clc1cc(C(=O)Nc2ccccc2C)c(c(c1)[N+](=O)[O-])O

$$$$
C14H11ClN2O4
APtclcactv12202015312D 0   0.00000     0.00000     3
 
 32 33  0  0  0  0  0  0  0  0999 V2000
    6.3301   -2.7500    0.0000 Cl  0  0  0  0  0  0  0  0  0  0  0  0
    5.4641   -2.2500    0.0000 C   0  0  0  0  0  0  0  0  0  0  0  0
    5.4641   -1.2500    0.0000 C   0  0  0  0  0  0  0  0  0  0  0  0
    4.5981   -0.7500    0.0000 C   0  0  0  0  0  0  0  0  0  0  0  0
    4.5981    0.2500    0.0000 C   0  0  0  0  0  0  0  0  0  0  0  0
    3.7321    0.7500    0.0000 O   0  0  0  0  0  0  0  0  0  0  0  0
    5.4641    0.7500    0.0000 N   0  0  0  0  0  0  0  0  0  0  0  0
    5.4641    1.7500    0.0000 C   0  0  0  0  0  0  0  0  0  0  0  0
    4.5981    2.2500    0.0000 C   0  0  0  0  0  0  0  0  0  0  0  0
    4.5981    3.2500    0.0000 C   0  0  0  0  0  0  0  0  0  0  0  0
    5.4641    3.7500    0.0000 C   0  0  0  0  0  0  0  0  0  0  0  0
    6.3301    3.2500    0.0000 C   0  0  0  0  0  0  0  0  0  0  0  0
    6.3301    2.2500    0.0000 C   0  0  0  0  0  0  0  0  0  0  0  0
    7.1962    3.7500    0.0000 C   0  0  0  0  0  0  0  0  0  0  0  0
    3.7321   -1.2500    0.0000 C   0  0  0  0  0  0  0  0  0  0  0  0
    3.7321   -2.2500    0.0000 C   0  0  0  0  0  0  0  0  0  0  0  0
    4.5981   -2.7500    0.0000 C   0  0  0  0  0  0  0  0  0  0  0  0
    2.8660   -2.7500    0.0000 N   0  3  0  0  0  0  0  0  0  0  0  0
    2.0000   -2.2500    0.0000 O   0  0  0  0  0  0  0  0  0  0  0  0
    2.8660   -3.7500    0.0000 O   0  5  0  0  0  0  0  0  0  0  0  0
    2.8660   -0.7500    0.0000 O   0  0  0  0  0  0  0  0  0  0  0  0
    6.0010   -0.9400    0.0000 H   0  0  0  0  0  0  0  0  0  0  0  0
    6.0010    0.4400    0.0000 H   0  0  0  0  0  0  0  0  0  0  0  0
    4.0611    1.9400    0.0000 H   0  0  0  0  0  0  0  0  0  0  0  0
    4.0611    3.5600    0.0000 H   0  0  0  0  0  0  0  0  0  0  0  0
    5.4641    4.3700    0.0000 H   0  0  0  0  0  0  0  0  0  0  0  0
    6.8671    1.9400    0.0000 H   0  0  0  0  0  0  0  0  0  0  0  0
    7.5062    3.2131    0.0000 H   0  0  0  0  0  0  0  0  0  0  0  0
    7.7331    4.0600    0.0000 H   0  0  0  0  0  0  0  0  0  0  0  0
    6.8862    4.2869    0.0000 H   0  0  0  0  0  0  0  0  0  0  0  0
    4.5981   -3.3700    0.0000 H   0  0  0  0  0  0  0  0  0  0  0  0
    2.3291   -1.0600    0.0000 H   0  0  0  0  0  0  0  0  0  0  0  0
  1  2  1  0  0  0  0
  2  3  1  0  0  0  0
  3  4  2  0  0  0  0
  4  5  1  0  0  0  0
  5  6  2  0  0  0  0
  5  7  1  0  0  0  0
  7  8  1  0  0  0  0
  8  9  1  0  0  0  0
  9 10  2  0  0  0  0
 10 11  1  0  0  0  0
 11 12  2  0  0  0  0
 12 13  1  0  0  0  0
  8 13  2  0  0  0  0
 12 14  1  0  0  0  0
  4 15  1  0  0  0  0
 15 16  2  0  0  0  0
 16 17  1  0  0  0  0
  2 17  2  0  0  0  0
 16 18  1  0  0  0  0
 18 19  2  0  0  0  0
 18 20  1  0  0  0  0
 15 21  1  0  0  0  0
  3 22  1  0  0  0  0
  7 23  1  0  0  0  0
  9 24  1  0  0  0  0
 10 25  1  0  0  0  0
 11 26  1  0  0  0  0
 13 27  1  0  0  0  0
 14 28  1  0  0  0  0
 14 29  1  0  0  0  0
 14 30  1  0  0  0  0
 17 31  1  0  0  0  0
 21 32  1  0  0  0  0
M  CHG  2  18   1  20  -1
M  END
> <UNIQUE_SMILES>
CC1=CC=CC(=C1)NC(=O)C2=CC(=CC(=C2O)[N+]([O-])=O)Cl

> <USER_SUPPLIED_SMILES>
Clc1cc(C(=O)Nc2cccc(c2)C)c(c(c1)[N+](=O)[O-])O

$$$$
C15H13ClN2O4
APtclcactv12202015312D 0   0.00000     0.00000     4
 
 35 36  0  0  0  0  0  0  0  0999 V2000
    5.4641    4.2500    0.0000 C   0  0  0  0  0  0  0  0  0  0  0  0
    5.4641    3.2500    0.0000 C   0  0  0  0  0  0  0  0  0  0  0  0
    4.5981    2.7500    0.0000 C   0  0  0  0  0  0  0  0  0  0  0  0
    4.5981    1.7500    0.0000 C   0  0  0  0  0  0  0  0  0  0  0  0
    5.4641    1.2500    0.0000 C   0  0  0  0  0  0  0  0  0  0  0  0
    6.3301    1.7500    0.0000 C   0  0  0  0  0  0  0  0  0  0  0  0
    6.3301    2.7500    0.0000 C   0  0  0  0  0  0  0  0  0  0  0  0
    7.1962    1.2500    0.0000 C   0  0  0  0  0  0  0  0  0  0  0  0
    5.4641    0.2500    0.0000 N   0  0  0  0  0  0  0  0  0  0  0  0
    4.5981   -0.2500    0.0000 C   0  0  0  0  0  0  0  0  0  0  0  0
    3.7321    0.2500    0.0000 O   0  0  0  0  0  0  0  0  0  0  0  0
    4.5981   -1.2500    0.0000 C   0  0  0  0  0  0  0  0  0  0  0  0
    5.4641   -1.7500    0.0000 C   0  0  0  0  0  0  0  0  0  0  0  0
    5.4641   -2.7500    0.0000 C   0  0  0  0  0  0  0  0  0  0  0  0
    6.3301   -3.2500    0.0000 Cl  0  0  0  0  0  0  0  0  0  0  0  0
    4.5981   -3.2500    0.0000 C   0  0  0  0  0  0  0  0  0  0  0  0
    3.7321   -2.7500    0.0000 C   0  0  0  0  0  0  0  0  0  0  0  0
    3.7321   -1.7500    0.0000 C   0  0  0  0  0  0  0  0  0  0  0  0
    2.8660   -1.2500    0.0000 O   0  0  0  0  0  0  0  0  0  0  0  0
    2.8660   -3.2500    0.0000 N   0  3  0  0  0  0  0  0  0  0  0  0
    2.0000   -2.7500    0.0000 O   0  0  0  0  0  0  0  0  0  0  0  0
    2.8660   -4.2500    0.0000 O   0  5  0  0  0  0  0  0  0  0  0  0
    6.0841    4.2500    0.0000 H   0  0  0  0  0  0  0  0  0  0  0  0
    5.4641    4.8700    0.0000 H   0  0  0  0  0  0  0  0  0  0  0  0
    4.8441    4.2500    0.0000 H   0  0  0  0  0  0  0  0  0  0  0  0
    4.0611    3.0600    0.0000 H   0  0  0  0  0  0  0  0  0  0  0  0
    4.0611    1.4400    0.0000 H   0  0  0  0  0  0  0  0  0  0  0  0
    6.8671    3.0600    0.0000 H   0  0  0  0  0  0  0  0  0  0  0  0
    6.8862    0.7131    0.0000 H   0  0  0  0  0  0  0  0  0  0  0  0
    7.7331    0.9400    0.0000 H   0  0  0  0  0  0  0  0  0  0  0  0
    7.5062    1.7869    0.0000 H   0  0  0  0  0  0  0  0  0  0  0  0
    6.0010   -0.0600    0.0000 H   0  0  0  0  0  0  0  0  0  0  0  0
    6.0010   -1.4400    0.0000 H   0  0  0  0  0  0  0  0  0  0  0  0
    4.5981   -3.8700    0.0000 H   0  0  0  0  0  0  0  0  0  0  0  0
    2.3291   -1.5600    0.0000 H   0  0  0  0  0  0  0  0  0  0  0  0
  1  2  1  0  0  0  0
  2  3  1  0  0  0  0
  3  4  2  0  0  0  0
  4  5  1  0  0  0  0
  5  6  2  0  0  0  0
  6  7  1  0  0  0  0
  2  7  2  0  0  0  0
  6  8  1  0  0  0  0
  5  9  1  0  0  0  0
  9 10  1  0  0  0  0
 10 11  2  0  0  0  0
 10 12  1  0  0  0  0
 12 13  1  0  0  0  0
 13 14  2  0  0  0  0
 14 15  1  0  0  0  0
 14 16  1  0  0  0  0
 16 17  2  0  0  0  0
 17 18  1  0  0  0  0
 12 18  2  0  0  0  0
 18 19  1  0  0  0  0
 17 20  1  0  0  0  0
 20 21  2  0  0  0  0
 20 22  1  0  0  0  0
  1 23  1  0  0  0  0
  1 24  1  0  0  0  0
  1 25  1  0  0  0  0
  3 26  1  0  0  0  0
  4 27  1  0  0  0  0
  7 28  1  0  0  0  0
  8 29  1  0  0  0  0
  8 30  1  0  0  0  0
  8 31  1  0  0  0  0
  9 32  1  0  0  0  0
 13 33  1  0  0  0  0
 16 34  1  0  0  0  0
 19 35  1  0  0  0  0
M  CHG  2  20   1  22  -1
M  END
> <UNIQUE_SMILES>
CC1=CC(=C(NC(=O)C2=C(O)C(=CC(=C2)Cl)[N+]([O-])=O)C=C1)C

> <USER_SUPPLIED_SMILES>
Cc1ccc(c(c1)C)NC(=O)c1cc(Cl)cc(c1O)[N+](=O)[O-]

$$$$
C13H8Cl2N2O4
APtclcactv12202015312D 0   0.00000     0.00000     5
 
 29 30  0  0  0  0  0  0  0  0999 V2000
    5.4641    4.2500    0.0000 Cl  0  0  0  0  0  0  0  0  0  0  0  0
    5.4641    3.2500    0.0000 C   0  0  0  0  0  0  0  0  0  0  0  0
    4.5981    2.7500    0.0000 C   0  0  0  0  0  0  0  0  0  0  0  0
    4.5981    1.7500    0.0000 C   0  0  0  0  0  0  0  0  0  0  0  0
    5.4641    1.2500    0.0000 C   0  0  0  0  0  0  0  0  0  0  0  0
    6.3301    1.7500    0.0000 C   0  0  0  0  0  0  0  0  0  0  0  0
    6.3301    2.7500    0.0000 C   0  0  0  0  0  0  0  0  0  0  0  0
    7.1962    1.2500    0.0000 Cl  0  0  0  0  0  0  0  0  0  0  0  0
    5.4641    0.2500    0.0000 N   0  0  0  0  0  0  0  0  0  0  0  0
    4.5981   -0.2500    0.0000 C   0  0  0  0  0  0  0  0  0  0  0  0
    3.7321    0.2500    0.0000 O   0  0  0  0  0  0  0  0  0  0  0  0
    4.5981   -1.2500    0.0000 C   0  0  0  0  0  0  0  0  0  0  0  0
    5.4641   -1.7500    0.0000 C   0  0  0  0  0  0  0  0  0  0  0  0
    5.4641   -2.7500    0.0000 C   0  0  0  0  0  0  0  0  0  0  0  0
    4.5981   -3.2500    0.0000 C   0  0  0  0  0  0  0  0  0  0  0  0
    3.7321   -2.7500    0.0000 C   0  0  0  0  0  0  0  0  0  0  0  0
    3.7321   -1.7500    0.0000 C   0  0  0  0  0  0  0  0  0  0  0  0
    2.8660   -1.2500    0.0000 O   0  0  0  0  0  0  0  0  0  0  0  0
    2.8660   -3.2500    0.0000 N   0  3  0  0  0  0  0  0  0  0  0  0
    2.0000   -2.7500    0.0000 O   0  0  0  0  0  0  0  0  0  0  0  0
    2.8660   -4.2500    0.0000 O   0  5  0  0  0  0  0  0  0  0  0  0
    4.0611    3.0600    0.0000 H   0  0  0  0  0  0  0  0  0  0  0  0
    4.0611    1.4400    0.0000 H   0  0  0  0  0  0  0  0  0  0  0  0
    6.8671    3.0600    0.0000 H   0  0  0  0  0  0  0  0  0  0  0  0
    6.0010   -0.0600    0.0000 H   0  0  0  0  0  0  0  0  0  0  0  0
    6.0010   -1.4400    0.0000 H   0  0  0  0  0  0  0  0  0  0  0  0
    6.0010   -3.0600    0.0000 H   0  0  0  0  0  0  0  0  0  0  0  0
    4.5981   -3.8700    0.0000 H   0  0  0  0  0  0  0  0  0  0  0  0
    2.3291   -1.5600    0.0000 H   0  0  0  0  0  0  0  0  0  0  0  0
  1  2  1  0  0  0  0
  2  3  1  0  0  0  0
  3  4  2  0  0  0  0
  4  5  1  0  0  0  0
  5  6  2  0  0  0  0
  6  7  1  0  0  0  0
  2  7  2  0  0  0  0
  6  8  1  0  0  0  0
  5  9  1  0  0  0  0
  9 10  1  0  0  0  0
 10 11  2  0  0  0  0
 10 12  1  0  0  0  0
 12 13  1  0  0  0  0
 13 14  2  0  0  0  0
 14 15  1  0  0  0  0
 15 16  2  0  0  0  0
 16 17  1  0  0  0  0
 12 17  2  0  0  0  0
 17 18  1  0  0  0  0
 16 19  1  0  0  0  0
 19 20  2  0  0  0  0
 19 21  1  0  0  0  0
  3 22  1  0  0  0  0
  4 23  1  0  0  0  0
  7 24  1  0  0  0  0
  9 25  1  0  0  0  0
 13 26  1  0  0  0  0
 14 27  1  0  0  0  0
 15 28  1  0  0  0  0
 18 29  1  0  0  0  0
M  CHG  2  19   1  21  -1
M  END
> <UNIQUE_SMILES>
OC1=C(C=CC=C1[N+]([O-])=O)C(=O)NC2=C(Cl)C=C(Cl)C=C2

> <USER_SUPPLIED_SMILES>
Clc1ccc(c(c1)Cl)NC(=O)c1cccc(c1O)[N+](=O)[O-]

$$$$
C13H9ClN2O4
APtclcactv12202015312D 0   0.00000     0.00000     6
 
 29 30  0  0  0  0  0  0  0  0999 V2000
    5.4641    4.2500    0.0000 Cl  0  0  0  0  0  0  0  0  0  0  0  0
    5.4641    3.2500    0.0000 C   0  0  0  0  0  0  0  0  0  0  0  0
    4.5981    2.7500    0.0000 C   0  0  0  0  0  0  0  0  0  0  0  0
    4.5981    1.7500    0.0000 C   0  0  0  0  0  0  0  0  0  0  0  0
    5.4641    1.2500    0.0000 C   0  0  0  0  0  0  0  0  0  0  0  0
    6.3301    1.7500    0.0000 C   0  0  0  0  0  0  0  0  0  0  0  0
    6.3301    2.7500    0.0000 C   0  0  0  0  0  0  0  0  0  0  0  0
    5.4641    0.2500    0.0000 N   0  0  0  0  0  0  0  0  0  0  0  0
    4.5981   -0.2500    0.0000 C   0  0  0  0  0  0  0  0  0  0  0  0
    3.7321    0.2500    0.0000 O   0  0  0  0  0  0  0  0  0  0  0  0
    4.5981   -1.2500    0.0000 C   0  0  0  0  0  0  0  0  0  0  0  0
    5.4641   -1.7500    0.0000 C   0  0  0  0  0  0  0  0  0  0  0  0
    5.4641   -2.7500    0.0000 C   0  0  0  0  0  0  0  0  0  0  0  0
    4.5981   -3.2500    0.0000 C   0  0  0  0  0  0  0  0  0  0  0  0
    3.7321   -2.7500    0.0000 C   0  0  0  0  0  0  0  0  0  0  0  0
    3.7321   -1.7500    0.0000 C   0  0  0  0  0  0  0  0  0  0  0  0
    2.8660   -1.2500    0.0000 O   0  0  0  0  0  0  0  0  0  0  0  0
    2.8660   -3.2500    0.0000 N   0  3  0  0  0  0  0  0  0  0  0  0
    2.0000   -2.7500    0.0000 O   0  0  0  0  0  0  0  0  0  0  0  0
    2.8660   -4.2500    0.0000 O   0  5  0  0  0  0  0  0  0  0  0  0
    4.0611    3.0600    0.0000 H   0  0  0  0  0  0  0  0  0  0  0  0
    4.0611    1.4400    0.0000 H   0  0  0  0  0  0  0  0  0  0  0  0
    6.8671    1.4400    0.0000 H   0  0  0  0  0  0  0  0  0  0  0  0
    6.8671    3.0600    0.0000 H   0  0  0  0  0  0  0  0  0  0  0  0
    6.0010   -0.0600    0.0000 H   0  0  0  0  0  0  0  0  0  0  0  0
    6.0010   -1.4400    0.0000 H   0  0  0  0  0  0  0  0  0  0  0  0
    6.0010   -3.0600    0.0000 H   0  0  0  0  0  0  0  0  0  0  0  0
    4.5981   -3.8700    0.0000 H   0  0  0  0  0  0  0  0  0  0  0  0
    2.3291   -1.5600    0.0000 H   0  0  0  0  0  0  0  0  0  0  0  0
  1  2  1  0  0  0  0
  2  3  1  0  0  0  0
  3  4  2  0  0  0  0
  4  5  1  0  0  0  0
  5  6  2  0  0  0  0
  6  7  1  0  0  0  0
  2  7  2  0  0  0  0
  5  8  1  0  0  0  0
  8  9  1  0  0  0  0
  9 10  2  0  0  0  0
  9 11  1  0  0  0  0
 11 12  1  0  0  0  0
 12 13  2  0  0  0  0
 13 14  1  0  0  0  0
 14 15  2  0  0  0  0
 15 16  1  0  0  0  0
 11 16  2  0  0  0  0
 16 17  1  0  0  0  0
 15 18  1  0  0  0  0
 18 19  2  0  0  0  0
 18 20  1  0  0  0  0
  3 21  1  0  0  0  0
  4 22  1  0  0  0  0
  6 23  1  0  0  0  0
  7 24  1  0  0  0  0
  8 25  1  0  0  0  0
 12 26  1  0  0  0  0
 13 27  1  0  0  0  0
 14 28  1  0  0  0  0
 17 29  1  0  0  0  0
M  CHG  2  18   1  20  -1
M  END
> <UNIQUE_SMILES>
OC1=C(C=CC=C1[N+]([O-])=O)C(=O)NC2=CC=C(Cl)C=C2

> <USER_SUPPLIED_SMILES>
Clc1ccc(cc1)NC(=O)c1cccc(c1O)[N+](=O)[O-]

$$$$
C14H10ClN3O6
APtclcactv12202015312D 0   0.00000     0.00000     7
 
 34 35  0  0  0  0  0  0  0  0999 V2000
    6.3301   -3.5000    0.0000 Cl  0  0  0  0  0  0  0  0  0  0  0  0
    5.4641   -3.0000    0.0000 C   0  0  0  0  0  0  0  0  0  0  0  0
    5.4641   -2.0000    0.0000 C   0  0  0  0  0  0  0  0  0  0  0  0
    4.5981   -1.5000    0.0000 C   0  0  0  0  0  0  0  0  0  0  0  0
    4.5981   -0.5000    0.0000 C   0  0  0  0  0  0  0  0  0  0  0  0
    3.7321   -0.0000    0.0000 O   0  0  0  0  0  0  0  0  0  0  0  0
    5.4641   -0.0000    0.0000 N   0  0  0  0  0  0  0  0  0  0  0  0
    5.4641    1.0000    0.0000 C   0  0  0  0  0  0  0  0  0  0  0  0
    4.5981    1.5000    0.0000 C   0  0  0  0  0  0  0  0  0  0  0  0
    4.5981    2.5000    0.0000 C   0  0  0  0  0  0  0  0  0  0  0  0
    5.4641    3.0000    0.0000 C   0  0  0  0  0  0  0  0  0  0  0  0
    6.3301    2.5000    0.0000 C   0  0  0  0  0  0  0  0  0  0  0  0
    6.3301    1.5000    0.0000 C   0  0  0  0  0  0  0  0  0  0  0  0
    7.1962    1.0000    0.0000 C   0  0  0  0  0  0  0  0  0  0  0  0
    5.4641    4.0000    0.0000 N   0  3  0  0  0  0  0  0  0  0  0  0
    4.5981    4.5000    0.0000 O   0  0  0  0  0  0  0  0  0  0  0  0
    6.3301    4.5000    0.0000 O   0  5  0  0  0  0  0  0  0  0  0  0
    3.7321   -2.0000    0.0000 C   0  0  0  0  0  0  0  0  0  0  0  0
    3.7321   -3.0000    0.0000 C   0  0  0  0  0  0  0  0  0  0  0  0
    4.5981   -3.5000    0.0000 C   0  0  0  0  0  0  0  0  0  0  0  0
    2.8660   -3.5000    0.0000 N   0  3  0  0  0  0  0  0  0  0  0  0
    2.0000   -3.0000    0.0000 O   0  0  0  0  0  0  0  0  0  0  0  0
    2.8660   -4.5000    0.0000 O   0  5  0  0  0  0  0  0  0  0  0  0
    2.8660   -1.5000    0.0000 O   0  0  0  0  0  0  0  0  0  0  0  0
    6.0010   -1.6900    0.0000 H   0  0  0  0  0  0  0  0  0  0  0  0
    6.0010   -0.3100    0.0000 H   0  0  0  0  0  0  0  0  0  0  0  0
    4.0611    1.1900    0.0000 H   0  0  0  0  0  0  0  0  0  0  0  0
    4.0611    2.8100    0.0000 H   0  0  0  0  0  0  0  0  0  0  0  0
    6.8671    2.8100    0.0000 H   0  0  0  0  0  0  0  0  0  0  0  0
    6.8862    0.4631    0.0000 H   0  0  0  0  0  0  0  0  0  0  0  0
    7.7331    0.6900    0.0000 H   0  0  0  0  0  0  0  0  0  0  0  0
    7.5062    1.5369    0.0000 H   0  0  0  0  0  0  0  0  0  0  0  0
    4.5981   -4.1200    0.0000 H   0  0  0  0  0  0  0  0  0  0  0  0
    2.3291   -1.8100    0.0000 H   0  0  0  0  0  0  0  0  0  0  0  0
  1  2  1  0  0  0  0
  2  3  1  0  0  0  0
  3  4  2  0  0  0  0
  4  5  1  0  0  0  0
  5  6  2  0  0  0  0
  5  7  1  0  0  0  0
  7  8  1  0  0  0  0
  8  9  1  0  0  0  0
  9 10  2  0  0  0  0
 10 11  1  0  0  0  0
 11 12  2  0  0  0  0
 12 13  1  0  0  0  0
  8 13  2  0  0  0  0
 13 14  1  0  0  0  0
 11 15  1  0  0  0  0
 15 16  2  0  0  0  0
 15 17  1  0  0  0  0
  4 18  1  0  0  0  0
 18 19  2  0  0  0  0
 19 20  1  0  0  0  0
  2 20  2  0  0  0  0
 19 21  1  0  0  0  0
 21 22  2  0  0  0  0
 21 23  1  0  0  0  0
 18 24  1  0  0  0  0
  3 25  1  0  0  0  0
  7 26  1  0  0  0  0
  9 27  1  0  0  0  0
 10 28  1  0  0  0  0
 12 29  1  0  0  0  0
 14 30  1  0  0  0  0
 14 31  1  0  0  0  0
 14 32  1  0  0  0  0
 20 33  1  0  0  0  0
 24 34  1  0  0  0  0
M  CHG  4  15   1  17  -1  21   1  23  -1
M  END
> <UNIQUE_SMILES>
CC1=C(NC(=O)C2=CC(=CC(=C2O)[N+]([O-])=O)Cl)C=CC(=C1)[N+]([O-])=O

> <USER_SUPPLIED_SMILES>
Clc1cc(C(=O)Nc2ccc(cc2C)[N+](=O)[O-])c(c(c1)[N+](=O)[O-])O

$$$$
C17H11ClN2O4
APtclcactv12202015312D 0   0.00000     0.00000     8
 
 35 37  0  0  0  0  0  0  0  0999 V2000
    6.3301   -2.7673    0.0000 Cl  0  0  0  0  0  0  0  0  0  0  0  0
    5.4641   -2.2673    0.0000 C   0  0  0  0  0  0  0  0  0  0  0  0
    5.4641   -1.2673    0.0000 C   0  0  0  0  0  0  0  0  0  0  0  0
    4.5981   -0.7673    0.0000 C   0  0  0  0  0  0  0  0  0  0  0  0
    4.5981    0.2327    0.0000 C   0  0  0  0  0  0  0  0  0  0  0  0
    3.7321    0.7327    0.0000 O   0  0  0  0  0  0  0  0  0  0  0  0
    5.4641    0.7327    0.0000 N   0  0  0  0  0  0  0  0  0  0  0  0
    5.4641    1.7327    0.0000 C   0  0  0  0  0  0  0  0  0  0  0  0
    4.5981    2.2327    0.0000 C   0  0  0  0  0  0  0  0  0  0  0  0
    4.5981    3.2327    0.0000 C   0  0  0  0  0  0  0  0  0  0  0  0
    5.4641    3.7327    0.0000 C   0  0  0  0  0  0  0  0  0  0  0  0
    6.3301    3.2327    0.0000 C   0  0  0  0  0  0  0  0  0  0  0  0
    6.3301    2.2327    0.0000 C   0  0  0  0  0  0  0  0  0  0  0  0
    7.2241    1.6980    0.0000 C   0  0  0  0  0  0  0  0  0  0  0  0
    8.1301    2.2119    0.0000 C   0  0  0  0  0  0  0  0  0  0  0  0
    8.1301    3.2535    0.0000 C   0  0  0  0  0  0  0  0  0  0  0  0
    7.2241    3.7673    0.0000 C   0  0  0  0  0  0  0  0  0  0  0  0
    3.7321   -1.2673    0.0000 C   0  0  0  0  0  0  0  0  0  0  0  0
    3.7321   -2.2673    0.0000 C   0  0  0  0  0  0  0  0  0  0  0  0
    4.5981   -2.7673    0.0000 C   0  0  0  0  0  0  0  0  0  0  0  0
    2.8660   -2.7673    0.0000 N   0  3  0  0  0  0  0  0  0  0  0  0
    2.0000   -2.2673    0.0000 O   0  0  0  0  0  0  0  0  0  0  0  0
    2.8660   -3.7673    0.0000 O   0  5  0  0  0  0  0  0  0  0  0  0
    2.8660   -0.7673    0.0000 O   0  0  0  0  0  0  0  0  0  0  0  0
    6.0010   -0.9573    0.0000 H   0  0  0  0  0  0  0  0  0  0  0  0
    6.0010    0.4227    0.0000 H   0  0  0  0  0  0  0  0  0  0  0  0
    4.0611    1.9227    0.0000 H   0  0  0  0  0  0  0  0  0  0  0  0
    4.0611    3.5427    0.0000 H   0  0  0  0  0  0  0  0  0  0  0  0
    5.4641    4.3527    0.0000 H   0  0  0  0  0  0  0  0  0  0  0  0
    7.2169    1.0780    0.0000 H   0  0  0  0  0  0  0  0  0  0  0  0
    8.6659    1.8998    0.0000 H   0  0  0  0  0  0  0  0  0  0  0  0
    8.6659    3.5656    0.0000 H   0  0  0  0  0  0  0  0  0  0  0  0
    7.2169    4.3873    0.0000 H   0  0  0  0  0  0  0  0  0  0  0  0
    4.5981   -3.3873    0.0000 H   0  0  0  0  0  0  0  0  0  0  0  0
    2.3291   -1.0773    0.0000 H   0  0  0  0  0  0  0  0  0  0  0  0
  1  2  1  0  0  0  0
  2  3  1  0  0  0  0
  3  4  2  0  0  0  0
  4  5  1  0  0  0  0
  5  6  2  0  0  0  0
  5  7  1  0  0  0  0
  7  8  1  0  0  0  0
  8  9  1  0  0  0  0
  9 10  2  0  0  0  0
 10 11  1  0  0  0  0
 11 12  2  0  0  0  0
 12 13  1  0  0  0  0
  8 13  2  0  0  0  0
 13 14  1  0  0  0  0
 14 15  2  0  0  0  0
 15 16  1  0  0  0  0
 16 17  2  0  0  0  0
 12 17  1  0  0  0  0
  4 18  1  0  0  0  0
 18 19  2  0  0  0  0
 19 20  1  0  0  0  0
  2 20  2  0  0  0  0
 19 21  1  0  0  0  0
 21 22  2  0  0  0  0
 21 23  1  0  0  0  0
 18 24  1  0  0  0  0
  3 25  1  0  0  0  0
  7 26  1  0  0  0  0
  9 27  1  0  0  0  0
 10 28  1  0  0  0  0
 11 29  1  0  0  0  0
 14 30  1  0  0  0  0
 15 31  1  0  0  0  0
 16 32  1  0  0  0  0
 17 33  1  0  0  0  0
 20 34  1  0  0  0  0
 24 35  1  0  0  0  0
M  CHG  2  21   1  23  -1
M  END
> <UNIQUE_SMILES>
OC1=C(C=C(Cl)C=C1C(=O)NC2=C3C=CC=CC3=CC=C2)[N+]([O-])=O

> <USER_SUPPLIED_SMILES>
Clc1cc(C(=O)Nc2cccc3c2cccc3)c(c(c1)[N+](=O)[O-])O

$$$$
C13H8Cl2N2O4
APtclcactv12202015312D 0   0.00000     0.00000     9
 
 29 30  0  0  0  0  0  0  0  0999 V2000
    6.3301   -2.7500    0.0000 Cl  0  0  0  0  0  0  0  0  0  0  0  0
    5.4641   -2.2500    0.0000 C   0  0  0  0  0  0  0  0  0  0  0  0
    5.4641   -1.2500    0.0000 C   0  0  0  0  0  0  0  0  0  0  0  0
    4.5981   -0.7500    0.0000 C   0  0  0  0  0  0  0  0  0  0  0  0
    4.5981    0.2500    0.0000 C   0  0  0  0  0  0  0  0  0  0  0  0
    3.7321    0.7500    0.0000 O   0  0  0  0  0  0  0  0  0  0  0  0
    5.4641    0.7500    0.0000 N   0  0  0  0  0  0  0  0  0  0  0  0
    5.4641    1.7500    0.0000 C   0  0  0  0  0  0  0  0  0  0  0  0
    4.5981    2.2500    0.0000 C   0  0  0  0  0  0  0  0  0  0  0  0
    4.5981    3.2500    0.0000 C   0  0  0  0  0  0  0  0  0  0  0  0
    5.4641    3.7500    0.0000 C   0  0  0  0  0  0  0  0  0  0  0  0
    6.3301    3.2500    0.0000 C   0  0  0  0  0  0  0  0  0  0  0  0
    6.3301    2.2500    0.0000 C   0  0  0  0  0  0  0  0  0  0  0  0
    7.1962    1.7500    0.0000 Cl  0  0  0  0  0  0  0  0  0  0  0  0
    3.7321   -1.2500    0.0000 C   0  0  0  0  0  0  0  0  0  0  0  0
    3.7321   -2.2500    0.0000 C   0  0  0  0  0  0  0  0  0  0  0  0
    4.5981   -2.7500    0.0000 C   0  0  0  0  0  0  0  0  0  0  0  0
    2.8660   -2.7500    0.0000 N   0  3  0  0  0  0  0  0  0  0  0  0
    2.0000   -2.2500    0.0000 O   0  0  0  0  0  0  0  0  0  0  0  0
    2.8660   -3.7500    0.0000 O   0  5  0  0  0  0  0  0  0  0  0  0
    2.8660   -0.7500    0.0000 O   0  0  0  0  0  0  0  0  0  0  0  0
    6.0010   -0.9400    0.0000 H   0  0  0  0  0  0  0  0  0  0  0  0
    6.0010    0.4400    0.0000 H   0  0  0  0  0  0  0  0  0  0  0  0
    4.0611    1.9400    0.0000 H   0  0  0  0  0  0  0  0  0  0  0  0
    4.0611    3.5600    0.0000 H   0  0  0  0  0  0  0  0  0  0  0  0
    5.4641    4.3700    0.0000 H   0  0  0  0  0  0  0  0  0  0  0  0
    6.8671    3.5600    0.0000 H   0  0  0  0  0  0  0  0  0  0  0  0
    4.5981   -3.3700    0.0000 H   0  0  0  0  0  0  0  0  0  0  0  0
    2.3291   -1.0600    0.0000 H   0  0  0  0  0  0  0  0  0  0  0  0
  1  2  1  0  0  0  0
  2  3  1  0  0  0  0
  3  4  2  0  0  0  0
  4  5  1  0  0  0  0
  5  6  2  0  0  0  0
  5  7  1  0  0  0  0
  7  8  1  0  0  0  0
  8  9  1  0  0  0  0
  9 10  2  0  0  0  0
 10 11  1  0  0  0  0
 11 12  2  0  0  0  0
 12 13  1  0  0  0  0
  8 13  2  0  0  0  0
 13 14  1  0  0  0  0
  4 15  1  0  0  0  0
 15 16  2  0  0  0  0
 16 17  1  0  0  0  0
  2 17  2  0  0  0  0
 16 18  1  0  0  0  0
 18 19  2  0  0  0  0
 18 20  1  0  0  0  0
 15 21  1  0  0  0  0
  3 22  1  0  0  0  0
  7 23  1  0  0  0  0
  9 24  1  0  0  0  0
 10 25  1  0  0  0  0
 11 26  1  0  0  0  0
 12 27  1  0  0  0  0
 17 28  1  0  0  0  0
 21 29  1  0  0  0  0
M  CHG  2  18   1  20  -1
M  END
> <UNIQUE_SMILES>
OC1=C(C=C(Cl)C=C1C(=O)NC2=C(Cl)C=CC=C2)[N+]([O-])=O

> <USER_SUPPLIED_SMILES>
Clc1cc(C(=O)Nc2ccccc2Cl)c(c(c1)[N+](=O)[O-])O

$$$$
C15H13ClN2O4
APtclcactv12202015312D 0   0.00000     0.00000    10
 
 35 36  0  0  0  0  0  0  0  0999 V2000
    5.1350    4.2500    0.0000 C   0  0  0  0  0  0  0  0  0  0  0  0
    5.1350    3.2500    0.0000 C   0  0  0  0  0  0  0  0  0  0  0  0
    4.2690    2.7500    0.0000 C   0  0  0  0  0  0  0  0  0  0  0  0
    4.2690    1.7500    0.0000 C   0  0  0  0  0  0  0  0  0  0  0  0
    5.1350    1.2500    0.0000 C   0  0  0  0  0  0  0  0  0  0  0  0
    6.0010    1.7500    0.0000 C   0  0  0  0  0  0  0  0  0  0  0  0
    6.0010    2.7500    0.0000 C   0  0  0  0  0  0  0  0  0  0  0  0
    6.8671    1.2500    0.0000 C   0  0  0  0  0  0  0  0  0  0  0  0
    5.1350    0.2500    0.0000 N   0  0  0  0  0  0  0  0  0  0  0  0
    4.2690   -0.2500    0.0000 C   0  0  0  0  0  0  0  0  0  0  0  0
    3.4030    0.2500    0.0000 O   0  0  0  0  0  0  0  0  0  0  0  0
    4.2690   -1.2500    0.0000 C   0  0  0  0  0  0  0  0  0  0  0  0
    5.1350   -1.7500    0.0000 C   0  0  0  0  0  0  0  0  0  0  0  0
    5.1350   -2.7500    0.0000 C   0  0  0  0  0  0  0  0  0  0  0  0
    4.2690   -3.2500    0.0000 C   0  0  0  0  0  0  0  0  0  0  0  0
    3.4030   -2.7500    0.0000 C   0  0  0  0  0  0  0  0  0  0  0  0
    3.4030   -1.7500    0.0000 C   0  0  0  0  0  0  0  0  0  0  0  0
    2.5369   -1.2500    0.0000 O   0  0  0  0  0  0  0  0  0  0  0  0
    2.5369   -3.2500    0.0000 Cl  0  0  0  0  0  0  0  0  0  0  0  0
    6.0010   -3.2500    0.0000 N   0  3  0  0  0  0  0  0  0  0  0  0
    6.8671   -2.7500    0.0000 O   0  0  0  0  0  0  0  0  0  0  0  0
    6.0010   -4.2500    0.0000 O   0  5  0  0  0  0  0  0  0  0  0  0
    5.7550    4.2500    0.0000 H   0  0  0  0  0  0  0  0  0  0  0  0
    5.1350    4.8700    0.0000 H   0  0  0  0  0  0  0  0  0  0  0  0
    4.5150    4.2500    0.0000 H   0  0  0  0  0  0  0  0  0  0  0  0
    3.7321    3.0600    0.0000 H   0  0  0  0  0  0  0  0  0  0  0  0
    3.7321    1.4400    0.0000 H   0  0  0  0  0  0  0  0  0  0  0  0
    6.5380    3.0600    0.0000 H   0  0  0  0  0  0  0  0  0  0  0  0
    6.5571    0.7131    0.0000 H   0  0  0  0  0  0  0  0  0  0  0  0
    7.4040    0.9400    0.0000 H   0  0  0  0  0  0  0  0  0  0  0  0
    7.1771    1.7869    0.0000 H   0  0  0  0  0  0  0  0  0  0  0  0
    5.6719   -0.0600    0.0000 H   0  0  0  0  0  0  0  0  0  0  0  0
    5.6719   -1.4400    0.0000 H   0  0  0  0  0  0  0  0  0  0  0  0
    4.2690   -3.8700    0.0000 H   0  0  0  0  0  0  0  0  0  0  0  0
    2.0000   -1.5600    0.0000 H   0  0  0  0  0  0  0  0  0  0  0  0
  1  2  1  0  0  0  0
  2  3  1  0  0  0  0
  3  4  2  0  0  0  0
  4  5  1  0  0  0  0
  5  6  2  0  0  0  0
  6  7  1  0  0  0  0
  2  7  2  0  0  0  0
  6  8  1  0  0  0  0
  5  9  1  0  0  0  0
  9 10  1  0  0  0  0
 10 11  2  0  0  0  0
 10 12  1  0  0  0  0
 12 13  1  0  0  0  0
 13 14  2  0  0  0  0
 14 15  1  0  0  0  0
 15 16  2  0  0  0  0
 16 17  1  0  0  0  0
 12 17  2  0  0  0  0
 17 18  1  0  0  0  0
 16 19  1  0  0  0  0
 14 20  1  0  0  0  0
 20 21  2  0  0  0  0
 20 22  1  0  0  0  0
  1 23  1  0  0  0  0
  1 24  1  0  0  0  0
  1 25  1  0  0  0  0
  3 26  1  0  0  0  0
  4 27  1  0  0  0  0
  7 28  1  0  0  0  0
  8 29  1  0  0  0  0
  8 30  1  0  0  0  0
  8 31  1  0  0  0  0
  9 32  1  0  0  0  0
 13 33  1  0  0  0  0
 15 34  1  0  0  0  0
 18 35  1  0  0  0  0
M  CHG  2  20   1  22  -1
M  END
> <UNIQUE_SMILES>
CC1=CC(=C(NC(=O)C2=C(O)C(=CC(=C2)[N+]([O-])=O)Cl)C=C1)C

> <USER_SUPPLIED_SMILES>
Cc1ccc(c(c1)C)NC(=O)c1cc(cc(c1O)Cl)[N+](=O)[O-]

$$$$
C13H9ClN2O4
APtclcactv12202015312D 0   0.00000     0.00000    11
 
 29 30  0  0  0  0  0  0  0  0999 V2000
    6.3301   -2.7500    0.0000 Cl  0  0  0  0  0  0  0  0  0  0  0  0
    5.4641   -2.2500    0.0000 C   0  0  0  0  0  0  0  0  0  0  0  0
    5.4641   -1.2500    0.0000 C   0  0  0  0  0  0  0  0  0  0  0  0
    4.5981   -0.7500    0.0000 C   0  0  0  0  0  0  0  0  0  0  0  0
    4.5981    0.2500    0.0000 C   0  0  0  0  0  0  0  0  0  0  0  0
    3.7321    0.7500    0.0000 O   0  0  0  0  0  0  0  0  0  0  0  0
    5.4641    0.7500    0.0000 N   0  0  0  0  0  0  0  0  0  0  0  0
    5.4641    1.7500    0.0000 C   0  0  0  0  0  0  0  0  0  0  0  0
    6.3301    2.2500    0.0000 C   0  0  0  0  0  0  0  0  0  0  0  0
    6.3301    3.2500    0.0000 C   0  0  0  0  0  0  0  0  0  0  0  0
    5.4641    3.7500    0.0000 C   0  0  0  0  0  0  0  0  0  0  0  0
    4.5981    3.2500    0.0000 C   0  0  0  0  0  0  0  0  0  0  0  0
    4.5981    2.2500    0.0000 C   0  0  0  0  0  0  0  0  0  0  0  0
    3.7321   -1.2500    0.0000 C   0  0  0  0  0  0  0  0  0  0  0  0
    3.7321   -2.2500    0.0000 C   0  0  0  0  0  0  0  0  0  0  0  0
    4.5981   -2.7500    0.0000 C   0  0  0  0  0  0  0  0  0  0  0  0
    2.8660   -2.7500    0.0000 N   0  3  0  0  0  0  0  0  0  0  0  0
    2.0000   -2.2500    0.0000 O   0  0  0  0  0  0  0  0  0  0  0  0
    2.8660   -3.7500    0.0000 O   0  5  0  0  0  0  0  0  0  0  0  0
    2.8660   -0.7500    0.0000 O   0  0  0  0  0  0  0  0  0  0  0  0
    6.0010   -0.9400    0.0000 H   0  0  0  0  0  0  0  0  0  0  0  0
    6.0010    0.4400    0.0000 H   0  0  0  0  0  0  0  0  0  0  0  0
    6.8671    1.9400    0.0000 H   0  0  0  0  0  0  0  0  0  0  0  0
    6.8671    3.5600    0.0000 H   0  0  0  0  0  0  0  0  0  0  0  0
    5.4641    4.3700    0.0000 H   0  0  0  0  0  0  0  0  0  0  0  0
    4.0611    3.5600    0.0000 H   0  0  0  0  0  0  0  0  0  0  0  0
    4.0611    1.9400    0.0000 H   0  0  0  0  0  0  0  0  0  0  0  0
    4.5981   -3.3700    0.0000 H   0  0  0  0  0  0  0  0  0  0  0  0
    2.3291   -1.0600    0.0000 H   0  0  0  0  0  0  0  0  0  0  0  0
  1  2  1  0  0  0  0
  2  3  1  0  0  0  0
  3  4  2  0  0  0  0
  4  5  1  0  0  0  0
  5  6  2  0  0  0  0
  5  7  1  0  0  0  0
  7  8  1  0  0  0  0
  8  9  1  0  0  0  0
  9 10  2  0  0  0  0
 10 11  1  0  0  0  0
 11 12  2  0  0  0  0
 12 13  1  0  0  0  0
  8 13  2  0  0  0  0
  4 14  1  0  0  0  0
 14 15  2  0  0  0  0
 15 16  1  0  0  0  0
  2 16  2  0  0  0  0
 15 17  1  0  0  0  0
 17 18  2  0  0  0  0
 17 19  1  0  0  0  0
 14 20  1  0  0  0  0
  3 21  1  0  0  0  0
  7 22  1  0  0  0  0
  9 23  1  0  0  0  0
 10 24  1  0  0  0  0
 11 25  1  0  0  0  0
 12 26  1  0  0  0  0
 13 27  1  0  0  0  0
 16 28  1  0  0  0  0
 20 29  1  0  0  0  0
M  CHG  2  17   1  19  -1
M  END
> <UNIQUE_SMILES>
OC1=C(C=C(Cl)C=C1C(=O)NC2=CC=CC=C2)[N+]([O-])=O

> <USER_SUPPLIED_SMILES>
Clc1cc(C(=O)Nc2ccccc2)c(c(c1)[N+](=O)[O-])O

$$$$
C13H7Cl3N2O4
APtclcactv12202015312D 0   0.00000     0.00000    12
 
 29 30  0  0  0  0  0  0  0  0999 V2000
    6.3301   -2.7500    0.0000 Cl  0  0  0  0  0  0  0  0  0  0  0  0
    5.4641   -2.2500    0.0000 C   0  0  0  0  0  0  0  0  0  0  0  0
    5.4641   -1.2500    0.0000 C   0  0  0  0  0  0  0  0  0  0  0  0
    4.5981   -0.7500    0.0000 C   0  0  0  0  0  0  0  0  0  0  0  0
    4.5981    0.2500    0.0000 C   0  0  0  0  0  0  0  0  0  0  0  0
    3.7321    0.7500    0.0000 O   0  0  0  0  0  0  0  0  0  0  0  0
    5.4641    0.7500    0.0000 N   0  0  0  0  0  0  0  0  0  0  0  0
    5.4641    1.7500    0.0000 C   0  0  0  0  0  0  0  0  0  0  0  0
    4.5981    2.2500    0.0000 C   0  0  0  0  0  0  0  0  0  0  0  0
    4.5981    3.2500    0.0000 C   0  0  0  0  0  0  0  0  0  0  0  0
    3.7321    3.7500    0.0000 Cl  0  0  0  0  0  0  0  0  0  0  0  0
    5.4641    3.7500    0.0000 C   0  0  0  0  0  0  0  0  0  0  0  0
    6.3301    3.2500    0.0000 C   0  0  0  0  0  0  0  0  0  0  0  0
    6.3301    2.2500    0.0000 C   0  0  0  0  0  0  0  0  0  0  0  0
    7.1962    1.7500    0.0000 Cl  0  0  0  0  0  0  0  0  0  0  0  0
    3.7321   -1.2500    0.0000 C   0  0  0  0  0  0  0  0  0  0  0  0
    3.7321   -2.2500    0.0000 C   0  0  0  0  0  0  0  0  0  0  0  0
    4.5981   -2.7500    0.0000 C   0  0  0  0  0  0  0  0  0  0  0  0
    2.8660   -2.7500    0.0000 N   0  3  0  0  0  0  0  0  0  0  0  0
    2.0000   -2.2500    0.0000 O   0  0  0  0  0  0  0  0  0  0  0  0
    2.8660   -3.7500    0.0000 O   0  5  0  0  0  0  0  0  0  0  0  0
    2.8660   -0.7500    0.0000 O   0  0  0  0  0  0  0  0  0  0  0  0
    6.0010   -0.9400    0.0000 H   0  0  0  0  0  0  0  0  0  0  0  0
    6.0010    0.4400    0.0000 H   0  0  0  0  0  0  0  0  0  0  0  0
    4.0611    1.9400    0.0000 H   0  0  0  0  0  0  0  0  0  0  0  0
    5.4641    4.3700    0.0000 H   0  0  0  0  0  0  0  0  0  0  0  0
    6.8671    3.5600    0.0000 H   0  0  0  0  0  0  0  0  0  0  0  0
    4.5981   -3.3700    0.0000 H   0  0  0  0  0  0  0  0  0  0  0  0
    2.3291   -1.0600    0.0000 H   0  0  0  0  0  0  0  0  0  0  0  0
  1  2  1  0  0  0  0
  2  3  1  0  0  0  0
  3  4  2  0  0  0  0
  4  5  1  0  0  0  0
  5  6  2  0  0  0  0
  5  7  1  0  0  0  0
  7  8  1  0  0  0  0
  8  9  1  0  0  0  0
  9 10  2  0  0  0  0
 10 11  1  0  0  0  0
 10 12  1  0  0  0  0
 12 13  2  0  0  0  0
 13 14  1  0  0  0  0
  8 14  2  0  0  0  0
 14 15  1  0  0  0  0
  4 16  1  0  0  0  0
 16 17  2  0  0  0  0
 17 18  1  0  0  0  0
  2 18  2  0  0  0  0
 17 19  1  0  0  0  0
 19 20  2  0  0  0  0
 19 21  1  0  0  0  0
 16 22  1  0  0  0  0
  3 23  1  0  0  0  0
  7 24  1  0  0  0  0
  9 25  1  0  0  0  0
 12 26  1  0  0  0  0
 13 27  1  0  0  0  0
 18 28  1  0  0  0  0
 22 29  1  0  0  0  0
M  CHG  2  19   1  21  -1
M  END
> <UNIQUE_SMILES>
OC1=C(C=C(Cl)C=C1C(=O)NC2=C(Cl)C=CC(=C2)Cl)[N+]([O-])=O

> <USER_SUPPLIED_SMILES>
Clc1cc(C(=O)Nc2cc(Cl)ccc2Cl)c(c(c1)[N+](=O)[O-])O

$$$$
C14H11ClN2O5
APtclcactv12202015312D 0   0.00000     0.00000    13
 
 33 34  0  0  0  0  0  0  0  0999 V2000
    6.3301    4.5000    0.0000 C   0  0  0  0  0  0  0  0  0  0  0  0
    5.4641    4.0000    0.0000 O   0  0  0  0  0  0  0  0  0  0  0  0
    5.4641    3.0000    0.0000 C   0  0  0  0  0  0  0  0  0  0  0  0
    4.5981    2.5000    0.0000 C   0  0  0  0  0  0  0  0  0  0  0  0
    4.5981    1.5000    0.0000 C   0  0  0  0  0  0  0  0  0  0  0  0
    5.4641    1.0000    0.0000 C   0  0  0  0  0  0  0  0  0  0  0  0
    6.3301    1.5000    0.0000 C   0  0  0  0  0  0  0  0  0  0  0  0
    6.3301    2.5000    0.0000 C   0  0  0  0  0  0  0  0  0  0  0  0
    5.4641    0.0000    0.0000 N   0  0  0  0  0  0  0  0  0  0  0  0
    4.5981   -0.5000    0.0000 C   0  0  0  0  0  0  0  0  0  0  0  0
    3.7321    0.0000    0.0000 O   0  0  0  0  0  0  0  0  0  0  0  0
    4.5981   -1.5000    0.0000 C   0  0  0  0  0  0  0  0  0  0  0  0
    5.4641   -2.0000    0.0000 C   0  0  0  0  0  0  0  0  0  0  0  0
    5.4641   -3.0000    0.0000 C   0  0  0  0  0  0  0  0  0  0  0  0
    6.3301   -3.5000    0.0000 Cl  0  0  0  0  0  0  0  0  0  0  0  0
    4.5981   -3.5000    0.0000 C   0  0  0  0  0  0  0  0  0  0  0  0
    3.7321   -3.0000    0.0000 C   0  0  0  0  0  0  0  0  0  0  0  0
    3.7321   -2.0000    0.0000 C   0  0  0  0  0  0  0  0  0  0  0  0
    2.8660   -1.5000    0.0000 O   0  0  0  0  0  0  0  0  0  0  0  0
    2.8660   -3.5000    0.0000 N   0  3  0  0  0  0  0  0  0  0  0  0
    2.0000   -3.0000    0.0000 O   0  0  0  0  0  0  0  0  0  0  0  0
    2.8660   -4.5000    0.0000 O   0  5  0  0  0  0  0  0  0  0  0  0
    6.6401    3.9631    0.0000 H   0  0  0  0  0  0  0  0  0  0  0  0
    6.8671    4.8100    0.0000 H   0  0  0  0  0  0  0  0  0  0  0  0
    6.0201    5.0369    0.0000 H   0  0  0  0  0  0  0  0  0  0  0  0
    4.0611    2.8100    0.0000 H   0  0  0  0  0  0  0  0  0  0  0  0
    4.0611    1.1900    0.0000 H   0  0  0  0  0  0  0  0  0  0  0  0
    6.8671    1.1900    0.0000 H   0  0  0  0  0  0  0  0  0  0  0  0
    6.8671    2.8100    0.0000 H   0  0  0  0  0  0  0  0  0  0  0  0
    6.0010   -0.3100    0.0000 H   0  0  0  0  0  0  0  0  0  0  0  0
    6.0010   -1.6900    0.0000 H   0  0  0  0  0  0  0  0  0  0  0  0
    4.5981   -4.1200    0.0000 H   0  0  0  0  0  0  0  0  0  0  0  0
    2.3291   -1.8100    0.0000 H   0  0  0  0  0  0  0  0  0  0  0  0
  1  2  1  0  0  0  0
  2  3  1  0  0  0  0
  3  4  1  0  0  0  0
  4  5  2  0  0  0  0
  5  6  1  0  0  0  0
  6  7  2  0  0  0  0
  7  8  1  0  0  0  0
  3  8  2  0  0  0  0
  6  9  1  0  0  0  0
  9 10  1  0  0  0  0
 10 11  2  0  0  0  0
 10 12  1  0  0  0  0
 12 13  1  0  0  0  0
 13 14  2  0  0  0  0
 14 15  1  0  0  0  0
 14 16  1  0  0  0  0
 16 17  2  0  0  0  0
 17 18  1  0  0  0  0
 12 18  2  0  0  0  0
 18 19  1  0  0  0  0
 17 20  1  0  0  0  0
 20 21  2  0  0  0  0
 20 22  1  0  0  0  0
  1 23  1  0  0  0  0
  1 24  1  0  0  0  0
  1 25  1  0  0  0  0
  4 26  1  0  0  0  0
  5 27  1  0  0  0  0
  7 28  1  0  0  0  0
  8 29  1  0  0  0  0
  9 30  1  0  0  0  0
 13 31  1  0  0  0  0
 16 32  1  0  0  0  0
 19 33  1  0  0  0  0
M  CHG  2  20   1  22  -1
M  END
> <UNIQUE_SMILES>
COC1=CC=C(NC(=O)C2=C(O)C(=CC(=C2)Cl)[N+]([O-])=O)C=C1

> <USER_SUPPLIED_SMILES>
COc1ccc(cc1)NC(=O)c1cc(Cl)cc(c1O)[N+](=O)[O-]

$$$$
C13H7Cl3N2O4
APtclcactv12202015312D 0   0.00000     0.00000    14
 
 29 30  0  0  0  0  0  0  0  0999 V2000
    5.4641    4.2500    0.0000 Cl  0  0  0  0  0  0  0  0  0  0  0  0
    5.4641    3.2500    0.0000 C   0  0  0  0  0  0  0  0  0  0  0  0
    4.5981    2.7500    0.0000 C   0  0  0  0  0  0  0  0  0  0  0  0
    4.5981    1.7500    0.0000 C   0  0  0  0  0  0  0  0  0  0  0  0
    5.4641    1.2500    0.0000 C   0  0  0  0  0  0  0  0  0  0  0  0
    6.3301    1.7500    0.0000 C   0  0  0  0  0  0  0  0  0  0  0  0
    6.3301    2.7500    0.0000 C   0  0  0  0  0  0  0  0  0  0  0  0
    7.1962    1.2500    0.0000 Cl  0  0  0  0  0  0  0  0  0  0  0  0
    5.4641    0.2500    0.0000 N   0  0  0  0  0  0  0  0  0  0  0  0
    4.5981   -0.2500    0.0000 C   0  0  0  0  0  0  0  0  0  0  0  0
    3.7321    0.2500    0.0000 O   0  0  0  0  0  0  0  0  0  0  0  0
    4.5981   -1.2500    0.0000 C   0  0  0  0  0  0  0  0  0  0  0  0
    5.4641   -1.7500    0.0000 C   0  0  0  0  0  0  0  0  0  0  0  0
    5.4641   -2.7500    0.0000 C   0  0  0  0  0  0  0  0  0  0  0  0
    6.3301   -3.2500    0.0000 Cl  0  0  0  0  0  0  0  0  0  0  0  0
    4.5981   -3.2500    0.0000 C   0  0  0  0  0  0  0  0  0  0  0  0
    3.7321   -2.7500    0.0000 C   0  0  0  0  0  0  0  0  0  0  0  0
    3.7321   -1.7500    0.0000 C   0  0  0  0  0  0  0  0  0  0  0  0
    2.8660   -1.2500    0.0000 O   0  0  0  0  0  0  0  0  0  0  0  0
    2.8660   -3.2500    0.0000 N   0  3  0  0  0  0  0  0  0  0  0  0
    2.0000   -2.7500    0.0000 O   0  0  0  0  0  0  0  0  0  0  0  0
    2.8660   -4.2500    0.0000 O   0  5  0  0  0  0  0  0  0  0  0  0
    4.0611    3.0600    0.0000 H   0  0  0  0  0  0  0  0  0  0  0  0
    4.0611    1.4400    0.0000 H   0  0  0  0  0  0  0  0  0  0  0  0
    6.8671    3.0600    0.0000 H   0  0  0  0  0  0  0  0  0  0  0  0
    6.0010   -0.0600    0.0000 H   0  0  0  0  0  0  0  0  0  0  0  0
    6.0010   -1.4400    0.0000 H   0  0  0  0  0  0  0  0  0  0  0  0
    4.5981   -3.8700    0.0000 H   0  0  0  0  0  0  0  0  0  0  0  0
    2.3291   -1.5600    0.0000 H   0  0  0  0  0  0  0  0  0  0  0  0
  1  2  1  0  0  0  0
  2  3  1  0  0  0  0
  3  4  2  0  0  0  0
  4  5  1  0  0  0  0
  5  6  2  0  0  0  0
  6  7  1  0  0  0  0
  2  7  2  0  0  0  0
  6  8  1  0  0  0  0
  5  9  1  0  0  0  0
  9 10  1  0  0  0  0
 10 11  2  0  0  0  0
 10 12  1  0  0  0  0
 12 13  1  0  0  0  0
 13 14  2  0  0  0  0
 14 15  1  0  0  0  0
 14 16  1  0  0  0  0
 16 17  2  0  0  0  0
 17 18  1  0  0  0  0
 12 18  2  0  0  0  0
 18 19  1  0  0  0  0
 17 20  1  0  0  0  0
 20 21  2  0  0  0  0
 20 22  1  0  0  0  0
  3 23  1  0  0  0  0
  4 24  1  0  0  0  0
  7 25  1  0  0  0  0
  9 26  1  0  0  0  0
 13 27  1  0  0  0  0
 16 28  1  0  0  0  0
 19 29  1  0  0  0  0
M  CHG  2  20   1  22  -1
M  END
> <UNIQUE_SMILES>
OC1=C(C=C(Cl)C=C1[N+]([O-])=O)C(=O)NC2=C(Cl)C=C(Cl)C=C2

> <USER_SUPPLIED_SMILES>
Clc1ccc(c(c1)Cl)NC(=O)c1cc(Cl)cc(c1O)[N+](=O)[O-]

$$$$
C14H11ClN2O5
APtclcactv12202015312D 0   0.00000     0.00000    15
 
 33 34  0  0  0  0  0  0  0  0999 V2000
    3.7321    4.2500    0.0000 C   0  0  0  0  0  0  0  0  0  0  0  0
    3.7321    3.2500    0.0000 O   0  0  0  0  0  0  0  0  0  0  0  0
    4.5981    2.7500    0.0000 C   0  0  0  0  0  0  0  0  0  0  0  0
    5.4641    3.2500    0.0000 C   0  0  0  0  0  0  0  0  0  0  0  0
    6.3301    2.7500    0.0000 C   0  0  0  0  0  0  0  0  0  0  0  0
    6.3301    1.7500    0.0000 C   0  0  0  0  0  0  0  0  0  0  0  0
    5.4641    1.2500    0.0000 C   0  0  0  0  0  0  0  0  0  0  0  0
    4.5981    1.7500    0.0000 C   0  0  0  0  0  0  0  0  0  0  0  0
    5.4641    0.2500    0.0000 N   0  0  0  0  0  0  0  0  0  0  0  0
    4.5981   -0.2500    0.0000 C   0  0  0  0  0  0  0  0  0  0  0  0
    3.7321    0.2500    0.0000 O   0  0  0  0  0  0  0  0  0  0  0  0
    4.5981   -1.2500    0.0000 C   0  0  0  0  0  0  0  0  0  0  0  0
    5.4641   -1.7500    0.0000 C   0  0  0  0  0  0  0  0  0  0  0  0
    5.4641   -2.7500    0.0000 C   0  0  0  0  0  0  0  0  0  0  0  0
    6.3301   -3.2500    0.0000 Cl  0  0  0  0  0  0  0  0  0  0  0  0
    4.5981   -3.2500    0.0000 C   0  0  0  0  0  0  0  0  0  0  0  0
    3.7321   -2.7500    0.0000 C   0  0  0  0  0  0  0  0  0  0  0  0
    3.7321   -1.7500    0.0000 C   0  0  0  0  0  0  0  0  0  0  0  0
    2.8660   -1.2500    0.0000 O   0  0  0  0  0  0  0  0  0  0  0  0
    2.8660   -3.2500    0.0000 N   0  3  0  0  0  0  0  0  0  0  0  0
    2.0000   -2.7500    0.0000 O   0  0  0  0  0  0  0  0  0  0  0  0
    2.8660   -4.2500    0.0000 O   0  5  0  0  0  0  0  0  0  0  0  0
    4.3521    4.2500    0.0000 H   0  0  0  0  0  0  0  0  0  0  0  0
    3.7321    4.8700    0.0000 H   0  0  0  0  0  0  0  0  0  0  0  0
    3.1121    4.2500    0.0000 H   0  0  0  0  0  0  0  0  0  0  0  0
    5.4641    3.8700    0.0000 H   0  0  0  0  0  0  0  0  0  0  0  0
    6.8671    3.0600    0.0000 H   0  0  0  0  0  0  0  0  0  0  0  0
    6.8671    1.4400    0.0000 H   0  0  0  0  0  0  0  0  0  0  0  0
    4.0611    1.4400    0.0000 H   0  0  0  0  0  0  0  0  0  0  0  0
    6.0010   -0.0600    0.0000 H   0  0  0  0  0  0  0  0  0  0  0  0
    6.0010   -1.4400    0.0000 H   0  0  0  0  0  0  0  0  0  0  0  0
    4.5981   -3.8700    0.0000 H   0  0  0  0  0  0  0  0  0  0  0  0
    2.3291   -1.5600    0.0000 H   0  0  0  0  0  0  0  0  0  0  0  0
  1  2  1  0  0  0  0
  2  3  1  0  0  0  0
  3  4  1  0  0  0  0
  4  5  2  0  0  0  0
  5  6  1  0  0  0  0
  6  7  2  0  0  0  0
  7  8  1  0  0  0  0
  3  8  2  0  0  0  0
  7  9  1  0  0  0  0
  9 10  1  0  0  0  0
 10 11  2  0  0  0  0
 10 12  1  0  0  0  0
 12 13  1  0  0  0  0
 13 14  2  0  0  0  0
 14 15  1  0  0  0  0
 14 16  1  0  0  0  0
 16 17  2  0  0  0  0
 17 18  1  0  0  0  0
 12 18  2  0  0  0  0
 18 19  1  0  0  0  0
 17 20  1  0  0  0  0
 20 21  2  0  0  0  0
 20 22  1  0  0  0  0
  1 23  1  0  0  0  0
  1 24  1  0  0  0  0
  1 25  1  0  0  0  0
  4 26  1  0  0  0  0
  5 27  1  0  0  0  0
  6 28  1  0  0  0  0
  8 29  1  0  0  0  0
  9 30  1  0  0  0  0
 13 31  1  0  0  0  0
 16 32  1  0  0  0  0
 19 33  1  0  0  0  0
M  CHG  2  20   1  22  -1
M  END
> <UNIQUE_SMILES>
COC1=CC(=CC=C1)NC(=O)C2=C(O)C(=CC(=C2)Cl)[N+]([O-])=O

> <USER_SUPPLIED_SMILES>
COc1cccc(c1)NC(=O)c1cc(Cl)cc(c1O)[N+](=O)[O-]

$$$$
C9H6F3N3O
APtclcactv12202015312D 0   0.00000     0.00000    16
 
 22 23  0  0  0  0  0  0  0  0999 V2000
    2.8660   -0.9330    0.0000 N   0  0  0  0  0  0  0  0  0  0  0  0
    3.7321   -0.4330    0.0000 N   0  0  0  0  0  0  0  0  0  0  0  0
    4.5981   -0.9330    0.0000 C   0  0  0  0  0  0  0  0  0  0  0  0
    4.5981   -1.9330    0.0000 O   0  0  0  0  0  0  0  0  0  0  0  0
    5.4641   -0.4330    0.0000 C   0  0  0  0  0  0  0  0  0  0  0  0
    6.3580   -0.9677    0.0000 C   0  0  0  0  0  0  0  0  0  0  0  0
    7.2641   -0.4538    0.0000 C   0  0  0  0  0  0  0  0  0  0  0  0
    7.2641    0.5878    0.0000 C   0  0  0  0  0  0  0  0  0  0  0  0
    6.3580    1.1016    0.0000 C   0  0  0  0  0  0  0  0  0  0  0  0
    5.4641    0.5670    0.0000 C   0  0  0  0  0  0  0  0  0  0  0  0
    4.5981    1.0670    0.0000 N   0  0  0  0  0  0  0  0  0  0  0  0
    3.7321    0.5670    0.0000 C   0  0  0  0  0  0  0  0  0  0  0  0
    2.8660    1.0670    0.0000 C   0  0  0  0  0  0  0  0  0  0  0  0
    2.0000    1.5670    0.0000 F   0  0  0  0  0  0  0  0  0  0  0  0
    3.3660    1.9330    0.0000 F   0  0  0  0  0  0  0  0  0  0  0  0
    2.3660    0.2010    0.0000 F   0  0  0  0  0  0  0  0  0  0  0  0
    2.8660   -1.5530    0.0000 H   0  0  0  0  0  0  0  0  0  0  0  0
    2.3291   -0.6230    0.0000 H   0  0  0  0  0  0  0  0  0  0  0  0
    6.3509   -1.5876    0.0000 H   0  0  0  0  0  0  0  0  0  0  0  0
    7.7998   -0.7659    0.0000 H   0  0  0  0  0  0  0  0  0  0  0  0
    7.7998    0.8999    0.0000 H   0  0  0  0  0  0  0  0  0  0  0  0
    6.3509    1.7216    0.0000 H   0  0  0  0  0  0  0  0  0  0  0  0
  1  2  1  0  0  0  0
  2  3  1  0  0  0  0
  3  4  2  0  0  0  0
  3  5  1  0  0  0  0
  5  6  1  0  0  0  0
  6  7  2  0  0  0  0
  7  8  1  0  0  0  0
  8  9  2  0  0  0  0
  9 10  1  0  0  0  0
  5 10  2  0  0  0  0
 10 11  1  0  0  0  0
 11 12  2  0  0  0  0
  2 12  1  0  0  0  0
 12 13  1  0  0  0  0
 13 14  1  0  0  0  0
 13 15  1  0  0  0  0
 13 16  1  0  0  0  0
  1 17  1  0  0  0  0
  1 18  1  0  0  0  0
  6 19  1  0  0  0  0
  7 20  1  0  0  0  0
  8 21  1  0  0  0  0
  9 22  1  0  0  0  0
M  END
> <UNIQUE_SMILES>
NN1C(=O)C2=C(C=CC=C2)N=C1C(F)(F)F

> <USER_SUPPLIED_SMILES>
Nn1c(=O)c2ccccc2nc1C(F)(F)F

$$$$
C9H5ClF3N3O
APtclcactv12202015312D 0   0.00000     0.00000    17
 
 22 23  0  0  0  0  0  0  0  0999 V2000
    8.1282   -0.9572    0.0000 Cl  0  0  0  0  0  0  0  0  0  0  0  0
    7.2641   -0.4538    0.0000 C   0  0  0  0  0  0  0  0  0  0  0  0
    7.2641    0.5878    0.0000 C   0  0  0  0  0  0  0  0  0  0  0  0
    6.3580    1.1016    0.0000 C   0  0  0  0  0  0  0  0  0  0  0  0
    5.4641    0.5670    0.0000 C   0  0  0  0  0  0  0  0  0  0  0  0
    5.4641   -0.4330    0.0000 C   0  0  0  0  0  0  0  0  0  0  0  0
    6.3580   -0.9677    0.0000 C   0  0  0  0  0  0  0  0  0  0  0  0
    4.5981   -0.9330    0.0000 C   0  0  0  0  0  0  0  0  0  0  0  0
    4.5981   -1.9330    0.0000 O   0  0  0  0  0  0  0  0  0  0  0  0
    3.7321   -0.4330    0.0000 N   0  0  0  0  0  0  0  0  0  0  0  0
    3.7321    0.5670    0.0000 C   0  0  0  0  0  0  0  0  0  0  0  0
    4.5981    1.0670    0.0000 N   0  0  0  0  0  0  0  0  0  0  0  0
    2.8660    1.0670    0.0000 C   0  0  0  0  0  0  0  0  0  0  0  0
    2.0000    1.5670    0.0000 F   0  0  0  0  0  0  0  0  0  0  0  0
    3.3660    1.9330    0.0000 F   0  0  0  0  0  0  0  0  0  0  0  0
    2.3660    0.2010    0.0000 F   0  0  0  0  0  0  0  0  0  0  0  0
    2.8660   -0.9330    0.0000 N   0  0  0  0  0  0  0  0  0  0  0  0
    7.7998    0.8999    0.0000 H   0  0  0  0  0  0  0  0  0  0  0  0
    6.3509    1.7216    0.0000 H   0  0  0  0  0  0  0  0  0  0  0  0
    6.3509   -1.5876    0.0000 H   0  0  0  0  0  0  0  0  0  0  0  0
    2.8660   -1.5530    0.0000 H   0  0  0  0  0  0  0  0  0  0  0  0
    2.3291   -0.6230    0.0000 H   0  0  0  0  0  0  0  0  0  0  0  0
  1  2  1  0  0  0  0
  2  3  1  0  0  0  0
  3  4  2  0  0  0  0
  4  5  1  0  0  0  0
  5  6  2  0  0  0  0
  6  7  1  0  0  0  0
  2  7  2  0  0  0  0
  6  8  1  0  0  0  0
  8  9  2  0  0  0  0
  8 10  1  0  0  0  0
 10 11  1  0  0  0  0
 11 12  2  0  0  0  0
  5 12  1  0  0  0  0
 11 13  1  0  0  0  0
 13 14  1  0  0  0  0
 13 15  1  0  0  0  0
 13 16  1  0  0  0  0
 10 17  1  0  0  0  0
  3 18  1  0  0  0  0
  4 19  1  0  0  0  0
  7 20  1  0  0  0  0
 17 21  1  0  0  0  0
 17 22  1  0  0  0  0
M  END
> <UNIQUE_SMILES>
NN1C(=O)C2=C(C=CC(=C2)Cl)N=C1C(F)(F)F

> <USER_SUPPLIED_SMILES>
Clc1ccc2c(c1)c(=O)n(c(n2)C(F)(F)F)N

$$$$
C9H5F3N2O
APtclcactv12202015312D 0   0.00000     0.00000    18
 
 20 21  0  0  0  0  0  0  0  0999 V2000
    4.5981   -1.9330    0.0000 O   0  0  0  0  0  0  0  0  0  0  0  0
    4.5981   -0.9330    0.0000 C   0  0  0  0  0  0  0  0  0  0  0  0
    3.7321   -0.4330    0.0000 N   0  0  0  0  0  0  0  0  0  0  0  0
    3.1951   -0.7430    0.0000 H   0  0  0  0  0  0  0  0  0  0  0  0
    3.7321    0.5670    0.0000 C   0  0  0  0  0  0  0  0  0  0  0  0
    4.5981    1.0670    0.0000 N   0  0  0  0  0  0  0  0  0  0  0  0
    5.4641    0.5670    0.0000 C   0  0  0  0  0  0  0  0  0  0  0  0
    5.4641   -0.4330    0.0000 C   0  0  0  0  0  0  0  0  0  0  0  0
    6.3580   -0.9677    0.0000 C   0  0  0  0  0  0  0  0  0  0  0  0
    7.2641   -0.4538    0.0000 C   0  0  0  0  0  0  0  0  0  0  0  0
    7.2641    0.5878    0.0000 C   0  0  0  0  0  0  0  0  0  0  0  0
    6.3580    1.1016    0.0000 C   0  0  0  0  0  0  0  0  0  0  0  0
    2.8660    1.0670    0.0000 C   0  0  0  0  0  0  0  0  0  0  0  0
    2.0000    1.5670    0.0000 F   0  0  0  0  0  0  0  0  0  0  0  0
    3.3660    1.9330    0.0000 F   0  0  0  0  0  0  0  0  0  0  0  0
    2.3660    0.2010    0.0000 F   0  0  0  0  0  0  0  0  0  0  0  0
    6.3509   -1.5876    0.0000 H   0  0  0  0  0  0  0  0  0  0  0  0
    7.7998   -0.7659    0.0000 H   0  0  0  0  0  0  0  0  0  0  0  0
    7.7998    0.8999    0.0000 H   0  0  0  0  0  0  0  0  0  0  0  0
    6.3509    1.7216    0.0000 H   0  0  0  0  0  0  0  0  0  0  0  0
  1  2  2  0  0  0  0
  2  3  1  0  0  0  0
  3  4  1  0  0  0  0
  3  5  1  0  0  0  0
  5  6  2  0  0  0  0
  6  7  1  0  0  0  0
  7  8  1  0  0  0  0
  2  8  1  0  0  0  0
  8  9  2  0  0  0  0
  9 10  1  0  0  0  0
 10 11  2  0  0  0  0
 11 12  1  0  0  0  0
  7 12  2  0  0  0  0
  5 13  1  0  0  0  0
 13 14  1  0  0  0  0
 13 15  1  0  0  0  0
 13 16  1  0  0  0  0
  9 17  1  0  0  0  0
 10 18  1  0  0  0  0
 11 19  1  0  0  0  0
 12 20  1  0  0  0  0
M  END
> <UNIQUE_SMILES>
FC(F)(F)C1=NC2=CC=CC=C2C(=O)N1

> <USER_SUPPLIED_SMILES>
O=c1[nH]c(nc2c1cccc2)C(F)(F)F

$$$$
C11H11F3N4O
APtclcactv12202015312D 0   0.00000     0.00000    19
 
 30 31  0  0  0  0  0  0  0  0999 V2000
    8.1282   -0.9572    0.0000 N   0  0  0  0  0  0  0  0  0  0  0  0
    7.2641   -0.4538    0.0000 C   0  0  0  0  0  0  0  0  0  0  0  0
    7.2641    0.5878    0.0000 C   0  0  0  0  0  0  0  0  0  0  0  0
    6.3580    1.1016    0.0000 C   0  0  0  0  0  0  0  0  0  0  0  0
    5.4641    0.5670    0.0000 C   0  0  0  0  0  0  0  0  0  0  0  0
    5.4641   -0.4330    0.0000 C   0  0  0  0  0  0  0  0  0  0  0  0
    6.3580   -0.9677    0.0000 C   0  0  0  0  0  0  0  0  0  0  0  0
    4.5981   -0.9330    0.0000 C   0  0  0  0  0  0  0  0  0  0  0  0
    4.5981   -1.9330    0.0000 O   0  0  0  0  0  0  0  0  0  0  0  0
    3.7321   -0.4330    0.0000 N   0  0  0  0  0  0  0  0  0  0  0  0
    3.7321    0.5670    0.0000 C   0  0  0  0  0  0  0  0  0  0  0  0
    4.5981    1.0670    0.0000 N   0  0  0  0  0  0  0  0  0  0  0  0
    2.8660    1.0670    0.0000 C   0  0  0  0  0  0  0  0  0  0  0  0
    2.0000    1.5670    0.0000 F   0  0  0  0  0  0  0  0  0  0  0  0
    3.3660    1.9330    0.0000 F   0  0  0  0  0  0  0  0  0  0  0  0
    2.3660    0.2010    0.0000 F   0  0  0  0  0  0  0  0  0  0  0  0
    2.8660   -0.9330    0.0000 N   0  0  0  0  0  0  0  0  0  0  0  0
    2.8660   -1.9330    0.0000 C   0  0  0  0  0  0  0  0  0  0  0  0
    2.0000   -0.4330    0.0000 C   0  0  0  0  0  0  0  0  0  0  0  0
    8.6663   -0.6492    0.0000 H   0  0  0  0  0  0  0  0  0  0  0  0
    8.1258   -1.5772    0.0000 H   0  0  0  0  0  0  0  0  0  0  0  0
    7.7998    0.8999    0.0000 H   0  0  0  0  0  0  0  0  0  0  0  0
    6.3509    1.7216    0.0000 H   0  0  0  0  0  0  0  0  0  0  0  0
    6.3509   -1.5876    0.0000 H   0  0  0  0  0  0  0  0  0  0  0  0
    2.2460   -1.9330    0.0000 H   0  0  0  0  0  0  0  0  0  0  0  0
    2.8660   -2.5530    0.0000 H   0  0  0  0  0  0  0  0  0  0  0  0
    3.4860   -1.9330    0.0000 H   0  0  0  0  0  0  0  0  0  0  0  0
    2.3100    0.1039    0.0000 H   0  0  0  0  0  0  0  0  0  0  0  0
    1.4631   -0.1230    0.0000 H   0  0  0  0  0  0  0  0  0  0  0  0
    1.6900   -0.9699    0.0000 H   0  0  0  0  0  0  0  0  0  0  0  0
  1  2  1  0  0  0  0
  2  3  1  0  0  0  0
  3  4  2  0  0  0  0
  4  5  1  0  0  0  0
  5  6  2  0  0  0  0
  6  7  1  0  0  0  0
  2  7  2  0  0  0  0
  6  8  1  0  0  0  0
  8  9  2  0  0  0  0
  8 10  1  0  0  0  0
 10 11  1  0  0  0  0
 11 12  2  0  0  0  0
  5 12  1  0  0  0  0
 11 13  1  0  0  0  0
 13 14  1  0  0  0  0
 13 15  1  0  0  0  0
 13 16  1  0  0  0  0
 10 17  1  0  0  0  0
 17 18  1  0  0  0  0
 17 19  1  0  0  0  0
  1 20  1  0  0  0  0
  1 21  1  0  0  0  0
  3 22  1  0  0  0  0
  4 23  1  0  0  0  0
  7 24  1  0  0  0  0
 18 25  1  0  0  0  0
 18 26  1  0  0  0  0
 18 27  1  0  0  0  0
 19 28  1  0  0  0  0
 19 29  1  0  0  0  0
 19 30  1  0  0  0  0
M  END
> <UNIQUE_SMILES>
CN(C)N1C(=O)C2=C(C=CC(=C2)N)N=C1C(F)(F)F

> <USER_SUPPLIED_SMILES>
Nc1ccc2c(c1)c(=O)n(c(n2)C(F)(F)F)N(C)C

$$$$
C9H4ClF3N2O
APtclcactv12202015312D 0   0.00000     0.00000    20
 
 20 21  0  0  0  0  0  0  0  0999 V2000
    6.3465   -1.9503    0.0000 Cl  0  0  0  0  0  0  0  0  0  0  0  0
    6.3580   -0.9504    0.0000 C   0  0  0  0  0  0  0  0  0  0  0  0
    7.2641   -0.4365    0.0000 C   0  0  0  0  0  0  0  0  0  0  0  0
    7.2641    0.6051    0.0000 C   0  0  0  0  0  0  0  0  0  0  0  0
    6.3580    1.1189    0.0000 C   0  0  0  0  0  0  0  0  0  0  0  0
    5.4641    0.5843    0.0000 C   0  0  0  0  0  0  0  0  0  0  0  0
    5.4641   -0.4157    0.0000 C   0  0  0  0  0  0  0  0  0  0  0  0
    4.5981   -0.9157    0.0000 C   0  0  0  0  0  0  0  0  0  0  0  0
    4.5981   -1.9157    0.0000 O   0  0  0  0  0  0  0  0  0  0  0  0
    3.7321   -0.4157    0.0000 N   0  0  0  0  0  0  0  0  0  0  0  0
    3.1951   -0.7257    0.0000 H   0  0  0  0  0  0  0  0  0  0  0  0
    3.7321    0.5843    0.0000 C   0  0  0  0  0  0  0  0  0  0  0  0
    4.5981    1.0843    0.0000 N   0  0  0  0  0  0  0  0  0  0  0  0
    2.8660    1.0843    0.0000 C   0  0  0  0  0  0  0  0  0  0  0  0
    2.0000    1.5843    0.0000 F   0  0  0  0  0  0  0  0  0  0  0  0
    3.3660    1.9503    0.0000 F   0  0  0  0  0  0  0  0  0  0  0  0
    2.3660    0.2183    0.0000 F   0  0  0  0  0  0  0  0  0  0  0  0
    7.7998   -0.7486    0.0000 H   0  0  0  0  0  0  0  0  0  0  0  0
    7.7998    0.9172    0.0000 H   0  0  0  0  0  0  0  0  0  0  0  0
    6.3509    1.7389    0.0000 H   0  0  0  0  0  0  0  0  0  0  0  0
  1  2  1  0  0  0  0
  2  3  2  0  0  0  0
  3  4  1  0  0  0  0
  4  5  2  0  0  0  0
  5  6  1  0  0  0  0
  6  7  2  0  0  0  0
  2  7  1  0  0  0  0
  7  8  1  0  0  0  0
  8  9  2  0  0  0  0
  8 10  1  0  0  0  0
 10 11  1  0  0  0  0
 10 12  1  0  0  0  0
 12 13  2  0  0  0  0
  6 13  1  0  0  0  0
 12 14  1  0  0  0  0
 14 15  1  0  0  0  0
 14 16  1  0  0  0  0
 14 17  1  0  0  0  0
  3 18  1  0  0  0  0
  4 19  1  0  0  0  0
  5 20  1  0  0  0  0
M  END
> <UNIQUE_SMILES>
FC(F)(F)C1=NC2=C(C(=CC=C2)Cl)C(=O)N1

> <USER_SUPPLIED_SMILES>
Clc1cccc2c1c(=O)[nH]c(n2)C(F)(F)F

$$$$
C9H6F3N3O
APtclcactv12202015312D 0   0.00000     0.00000    21
 
 22 23  0  0  0  0  0  0  0  0999 V2000
    8.1282   -0.9572    0.0000 N   0  0  0  0  0  0  0  0  0  0  0  0
    7.2641   -0.4538    0.0000 C   0  0  0  0  0  0  0  0  0  0  0  0
    7.2641    0.5878    0.0000 C   0  0  0  0  0  0  0  0  0  0  0  0
    6.3580    1.1016    0.0000 C   0  0  0  0  0  0  0  0  0  0  0  0
    5.4641    0.5670    0.0000 C   0  0  0  0  0  0  0  0  0  0  0  0
    5.4641   -0.4330    0.0000 C   0  0  0  0  0  0  0  0  0  0  0  0
    6.3580   -0.9677    0.0000 C   0  0  0  0  0  0  0  0  0  0  0  0
    4.5981   -0.9330    0.0000 C   0  0  0  0  0  0  0  0  0  0  0  0
    4.5981   -1.9330    0.0000 O   0  0  0  0  0  0  0  0  0  0  0  0
    3.7321   -0.4330    0.0000 N   0  0  0  0  0  0  0  0  0  0  0  0
    3.1951   -0.7430    0.0000 H   0  0  0  0  0  0  0  0  0  0  0  0
    3.7321    0.5670    0.0000 C   0  0  0  0  0  0  0  0  0  0  0  0
    4.5981    1.0670    0.0000 N   0  0  0  0  0  0  0  0  0  0  0  0
    2.8660    1.0670    0.0000 C   0  0  0  0  0  0  0  0  0  0  0  0
    2.0000    1.5670    0.0000 F   0  0  0  0  0  0  0  0  0  0  0  0
    3.3660    1.9330    0.0000 F   0  0  0  0  0  0  0  0  0  0  0  0
    2.3660    0.2010    0.0000 F   0  0  0  0  0  0  0  0  0  0  0  0
    8.6663   -0.6492    0.0000 H   0  0  0  0  0  0  0  0  0  0  0  0
    8.1258   -1.5772    0.0000 H   0  0  0  0  0  0  0  0  0  0  0  0
    7.7998    0.8999    0.0000 H   0  0  0  0  0  0  0  0  0  0  0  0
    6.3509    1.7216    0.0000 H   0  0  0  0  0  0  0  0  0  0  0  0
    6.3509   -1.5876    0.0000 H   0  0  0  0  0  0  0  0  0  0  0  0
  1  2  1  0  0  0  0
  2  3  1  0  0  0  0
  3  4  2  0  0  0  0
  4  5  1  0  0  0  0
  5  6  2  0  0  0  0
  6  7  1  0  0  0  0
  2  7  2  0  0  0  0
  6  8  1  0  0  0  0
  8  9  2  0  0  0  0
  8 10  1  0  0  0  0
 10 11  1  0  0  0  0
 10 12  1  0  0  0  0
 12 13  2  0  0  0  0
  5 13  1  0  0  0  0
 12 14  1  0  0  0  0
 14 15  1  0  0  0  0
 14 16  1  0  0  0  0
 14 17  1  0  0  0  0
  1 18  1  0  0  0  0
  1 19  1  0  0  0  0
  3 20  1  0  0  0  0
  4 21  1  0  0  0  0
  7 22  1  0  0  0  0
M  END
> <UNIQUE_SMILES>
NC1=CC2=C(C=C1)N=C(NC2=O)C(F)(F)F

> <USER_SUPPLIED_SMILES>
Nc1ccc2c(c1)c(=O)[nH]c(n2)C(F)(F)F

$$$$
C9H4ClF3N2O
APtclcactv12202015312D 0   0.00000     0.00000    22
 
 20 21  0  0  0  0  0  0  0  0999 V2000
    8.1282   -0.9572    0.0000 Cl  0  0  0  0  0  0  0  0  0  0  0  0
    7.2641   -0.4538    0.0000 C   0  0  0  0  0  0  0  0  0  0  0  0
    7.2641    0.5878    0.0000 C   0  0  0  0  0  0  0  0  0  0  0  0
    6.3580    1.1016    0.0000 C   0  0  0  0  0  0  0  0  0  0  0  0
    5.4641    0.5670    0.0000 C   0  0  0  0  0  0  0  0  0  0  0  0
    5.4641   -0.4330    0.0000 C   0  0  0  0  0  0  0  0  0  0  0  0
    6.3580   -0.9677    0.0000 C   0  0  0  0  0  0  0  0  0  0  0  0
    4.5981   -0.9330    0.0000 C   0  0  0  0  0  0  0  0  0  0  0  0
    4.5981   -1.9330    0.0000 O   0  0  0  0  0  0  0  0  0  0  0  0
    3.7321   -0.4330    0.0000 N   0  0  0  0  0  0  0  0  0  0  0  0
    3.1951   -0.7430    0.0000 H   0  0  0  0  0  0  0  0  0  0  0  0
    3.7321    0.5670    0.0000 C   0  0  0  0  0  0  0  0  0  0  0  0
    4.5981    1.0670    0.0000 N   0  0  0  0  0  0  0  0  0  0  0  0
    2.8660    1.0670    0.0000 C   0  0  0  0  0  0  0  0  0  0  0  0
    2.0000    1.5670    0.0000 F   0  0  0  0  0  0  0  0  0  0  0  0
    3.3660    1.9330    0.0000 F   0  0  0  0  0  0  0  0  0  0  0  0
    2.3660    0.2010    0.0000 F   0  0  0  0  0  0  0  0  0  0  0  0
    7.7998    0.8999    0.0000 H   0  0  0  0  0  0  0  0  0  0  0  0
    6.3509    1.7216    0.0000 H   0  0  0  0  0  0  0  0  0  0  0  0
    6.3509   -1.5876    0.0000 H   0  0  0  0  0  0  0  0  0  0  0  0
  1  2  1  0  0  0  0
  2  3  1  0  0  0  0
  3  4  2  0  0  0  0
  4  5  1  0  0  0  0
  5  6  2  0  0  0  0
  6  7  1  0  0  0  0
  2  7  2  0  0  0  0
  6  8  1  0  0  0  0
  8  9  2  0  0  0  0
  8 10  1  0  0  0  0
 10 11  1  0  0  0  0
 10 12  1  0  0  0  0
 12 13  2  0  0  0  0
  5 13  1  0  0  0  0
 12 14  1  0  0  0  0
 14 15  1  0  0  0  0
 14 16  1  0  0  0  0
 14 17  1  0  0  0  0
  3 18  1  0  0  0  0
  4 19  1  0  0  0  0
  7 20  1  0  0  0  0
M  END
> <UNIQUE_SMILES>
FC(F)(F)C1=NC2=C(C=C(Cl)C=C2)C(=O)N1

> <USER_SUPPLIED_SMILES>
Clc1ccc2c(c1)c(=O)[nH]c(n2)C(F)(F)F

$$$$
C9H4F4N2O
APtclcactv12202015312D 0   0.00000     0.00000    23
 
 20 21  0  0  0  0  0  0  0  0999 V2000
    6.3465   -2.0173    0.0000 F   0  0  0  0  0  0  0  0  0  0  0  0
    6.3580   -1.0174    0.0000 C   0  0  0  0  0  0  0  0  0  0  0  0
    7.2641   -0.5035    0.0000 C   0  0  0  0  0  0  0  0  0  0  0  0
    7.2641    0.5381    0.0000 C   0  0  0  0  0  0  0  0  0  0  0  0
    6.3580    1.0520    0.0000 C   0  0  0  0  0  0  0  0  0  0  0  0
    5.4641    0.5173    0.0000 C   0  0  0  0  0  0  0  0  0  0  0  0
    5.4641   -0.4827    0.0000 C   0  0  0  0  0  0  0  0  0  0  0  0
    4.5981   -0.9827    0.0000 N   0  0  0  0  0  0  0  0  0  0  0  0
    3.7321   -0.4827    0.0000 C   0  0  0  0  0  0  0  0  0  0  0  0
    3.7321    0.5173    0.0000 N   0  0  0  0  0  0  0  0  0  0  0  0
    3.1951    0.8273    0.0000 H   0  0  0  0  0  0  0  0  0  0  0  0
    4.5981    1.0173    0.0000 C   0  0  0  0  0  0  0  0  0  0  0  0
    4.5981    2.0173    0.0000 O   0  0  0  0  0  0  0  0  0  0  0  0
    2.8660   -0.9827    0.0000 C   0  0  0  0  0  0  0  0  0  0  0  0
    2.0000   -1.4827    0.0000 F   0  0  0  0  0  0  0  0  0  0  0  0
    3.3660   -1.8487    0.0000 F   0  0  0  0  0  0  0  0  0  0  0  0
    2.3660   -0.1167    0.0000 F   0  0  0  0  0  0  0  0  0  0  0  0
    7.7998   -0.8156    0.0000 H   0  0  0  0  0  0  0  0  0  0  0  0
    7.7998    0.8502    0.0000 H   0  0  0  0  0  0  0  0  0  0  0  0
    6.3509    1.6719    0.0000 H   0  0  0  0  0  0  0  0  0  0  0  0
  1  2  1  0  0  0  0
  2  3  1  0  0  0  0
  3  4  2  0  0  0  0
  4  5  1  0  0  0  0
  5  6  2  0  0  0  0
  6  7  1  0  0  0  0
  2  7  2  0  0  0  0
  7  8  1  0  0  0  0
  8  9  2  0  0  0  0
  9 10  1  0  0  0  0
 10 11  1  0  0  0  0
 10 12  1  0  0  0  0
  6 12  1  0  0  0  0
 12 13  2  0  0  0  0
  9 14  1  0  0  0  0
 14 15  1  0  0  0  0
 14 16  1  0  0  0  0
 14 17  1  0  0  0  0
  3 18  1  0  0  0  0
  4 19  1  0  0  0  0
  5 20  1  0  0  0  0
M  END
> <UNIQUE_SMILES>
FC1=C2N=C(NC(=O)C2=CC=C1)C(F)(F)F

> <USER_SUPPLIED_SMILES>
Fc1cccc2c1nc([nH]c2=O)C(F)(F)F

$$$$
C9H4F4N2O
APtclcactv12202015312D 0   0.00000     0.00000    24
 
 20 21  0  0  0  0  0  0  0  0999 V2000
    6.3465   -1.9503    0.0000 F   0  0  0  0  0  0  0  0  0  0  0  0
    6.3580   -0.9504    0.0000 C   0  0  0  0  0  0  0  0  0  0  0  0
    7.2641   -0.4365    0.0000 C   0  0  0  0  0  0  0  0  0  0  0  0
    7.2641    0.6051    0.0000 C   0  0  0  0  0  0  0  0  0  0  0  0
    6.3580    1.1189    0.0000 C   0  0  0  0  0  0  0  0  0  0  0  0
    5.4641    0.5843    0.0000 C   0  0  0  0  0  0  0  0  0  0  0  0
    5.4641   -0.4157    0.0000 C   0  0  0  0  0  0  0  0  0  0  0  0
    4.5981   -0.9157    0.0000 C   0  0  0  0  0  0  0  0  0  0  0  0
    4.5981   -1.9157    0.0000 O   0  0  0  0  0  0  0  0  0  0  0  0
    3.7321   -0.4157    0.0000 N   0  0  0  0  0  0  0  0  0  0  0  0
    3.1951   -0.7257    0.0000 H   0  0  0  0  0  0  0  0  0  0  0  0
    3.7321    0.5843    0.0000 C   0  0  0  0  0  0  0  0  0  0  0  0
    4.5981    1.0843    0.0000 N   0  0  0  0  0  0  0  0  0  0  0  0
    2.8660    1.0843    0.0000 C   0  0  0  0  0  0  0  0  0  0  0  0
    2.0000    1.5843    0.0000 F   0  0  0  0  0  0  0  0  0  0  0  0
    3.3660    1.9503    0.0000 F   0  0  0  0  0  0  0  0  0  0  0  0
    2.3660    0.2183    0.0000 F   0  0  0  0  0  0  0  0  0  0  0  0
    7.7998   -0.7486    0.0000 H   0  0  0  0  0  0  0  0  0  0  0  0
    7.7998    0.9172    0.0000 H   0  0  0  0  0  0  0  0  0  0  0  0
    6.3509    1.7389    0.0000 H   0  0  0  0  0  0  0  0  0  0  0  0
  1  2  1  0  0  0  0
  2  3  2  0  0  0  0
  3  4  1  0  0  0  0
  4  5  2  0  0  0  0
  5  6  1  0  0  0  0
  6  7  2  0  0  0  0
  2  7  1  0  0  0  0
  7  8  1  0  0  0  0
  8  9  2  0  0  0  0
  8 10  1  0  0  0  0
 10 11  1  0  0  0  0
 10 12  1  0  0  0  0
 12 13  2  0  0  0  0
  6 13  1  0  0  0  0
 12 14  1  0  0  0  0
 14 15  1  0  0  0  0
 14 16  1  0  0  0  0
 14 17  1  0  0  0  0
  3 18  1  0  0  0  0
  4 19  1  0  0  0  0
  5 20  1  0  0  0  0
M  END
> <UNIQUE_SMILES>
FC1=CC=CC2=C1C(=O)NC(=N2)C(F)(F)F

> <USER_SUPPLIED_SMILES>
Fc1cccc2c1c(=O)[nH]c(n2)C(F)(F)F

$$$$
C10H7F3N2O
APtclcactv12202015312D 0   0.00000     0.00000    25
 
 23 24  0  0  0  0  0  0  0  0999 V2000
    6.3465   -1.9503    0.0000 C   0  0  0  0  0  0  0  0  0  0  0  0
    6.3580   -0.9504    0.0000 C   0  0  0  0  0  0  0  0  0  0  0  0
    7.2641   -0.4365    0.0000 C   0  0  0  0  0  0  0  0  0  0  0  0
    7.2641    0.6051    0.0000 C   0  0  0  0  0  0  0  0  0  0  0  0
    6.3580    1.1189    0.0000 C   0  0  0  0  0  0  0  0  0  0  0  0
    5.4641    0.5843    0.0000 C   0  0  0  0  0  0  0  0  0  0  0  0
    5.4641   -0.4157    0.0000 C   0  0  0  0  0  0  0  0  0  0  0  0
    4.5981   -0.9157    0.0000 C   0  0  0  0  0  0  0  0  0  0  0  0
    4.5981   -1.9157    0.0000 O   0  0  0  0  0  0  0  0  0  0  0  0
    3.7321   -0.4157    0.0000 N   0  0  0  0  0  0  0  0  0  0  0  0
    3.1951   -0.7257    0.0000 H   0  0  0  0  0  0  0  0  0  0  0  0
    3.7321    0.5843    0.0000 C   0  0  0  0  0  0  0  0  0  0  0  0
    4.5981    1.0843    0.0000 N   0  0  0  0  0  0  0  0  0  0  0  0
    2.8660    1.0843    0.0000 C   0  0  0  0  0  0  0  0  0  0  0  0
    2.0000    1.5843    0.0000 F   0  0  0  0  0  0  0  0  0  0  0  0
    3.3660    1.9503    0.0000 F   0  0  0  0  0  0  0  0  0  0  0  0
    2.3660    0.2183    0.0000 F   0  0  0  0  0  0  0  0  0  0  0  0
    5.7265   -1.9431    0.0000 H   0  0  0  0  0  0  0  0  0  0  0  0
    6.3393   -2.5703    0.0000 H   0  0  0  0  0  0  0  0  0  0  0  0
    6.9664   -1.9575    0.0000 H   0  0  0  0  0  0  0  0  0  0  0  0
    7.7998   -0.7486    0.0000 H   0  0  0  0  0  0  0  0  0  0  0  0
    7.7998    0.9172    0.0000 H   0  0  0  0  0  0  0  0  0  0  0  0
    6.3509    1.7389    0.0000 H   0  0  0  0  0  0  0  0  0  0  0  0
  1  2  1  0  0  0  0
  2  3  2  0  0  0  0
  3  4  1  0  0  0  0
  4  5  2  0  0  0  0
  5  6  1  0  0  0  0
  6  7  2  0  0  0  0
  2  7  1  0  0  0  0
  7  8  1  0  0  0  0
  8  9  2  0  0  0  0
  8 10  1  0  0  0  0
 10 11  1  0  0  0  0
 10 12  1  0  0  0  0
 12 13  2  0  0  0  0
  6 13  1  0  0  0  0
 12 14  1  0  0  0  0
 14 15  1  0  0  0  0
 14 16  1  0  0  0  0
 14 17  1  0  0  0  0
  1 18  1  0  0  0  0
  1 19  1  0  0  0  0
  1 20  1  0  0  0  0
  3 21  1  0  0  0  0
  4 22  1  0  0  0  0
  5 23  1  0  0  0  0
M  END
> <UNIQUE_SMILES>
CC1=CC=CC2=C1C(=O)NC(=N2)C(F)(F)F

> <USER_SUPPLIED_SMILES>
Cc1cccc2c1c(=O)[nH]c(n2)C(F)(F)F

$$$$
C10H8F3N3O
APtclcactv12202015312D 0   0.00000     0.00000    26
 
 25 26  0  0  0  0  0  0  0  0999 V2000
    8.1282   -0.9572    0.0000 N   0  0  0  0  0  0  0  0  0  0  0  0
    7.2641   -0.4538    0.0000 C   0  0  0  0  0  0  0  0  0  0  0  0
    7.2641    0.5878    0.0000 C   0  0  0  0  0  0  0  0  0  0  0  0
    6.3580    1.1016    0.0000 C   0  0  0  0  0  0  0  0  0  0  0  0
    5.4641    0.5670    0.0000 C   0  0  0  0  0  0  0  0  0  0  0  0
    5.4641   -0.4330    0.0000 C   0  0  0  0  0  0  0  0  0  0  0  0
    6.3580   -0.9677    0.0000 C   0  0  0  0  0  0  0  0  0  0  0  0
    4.5981   -0.9330    0.0000 C   0  0  0  0  0  0  0  0  0  0  0  0
    4.5981   -1.9330    0.0000 O   0  0  0  0  0  0  0  0  0  0  0  0
    3.7321   -0.4330    0.0000 N   0  0  0  0  0  0  0  0  0  0  0  0
    3.7321    0.5670    0.0000 C   0  0  0  0  0  0  0  0  0  0  0  0
    4.5981    1.0670    0.0000 N   0  0  0  0  0  0  0  0  0  0  0  0
    2.8660    1.0670    0.0000 C   0  0  0  0  0  0  0  0  0  0  0  0
    2.0000    1.5670    0.0000 F   0  0  0  0  0  0  0  0  0  0  0  0
    3.3660    1.9330    0.0000 F   0  0  0  0  0  0  0  0  0  0  0  0
    2.3660    0.2010    0.0000 F   0  0  0  0  0  0  0  0  0  0  0  0
    2.8660   -0.9330    0.0000 C   0  0  0  0  0  0  0  0  0  0  0  0
    8.6663   -0.6492    0.0000 H   0  0  0  0  0  0  0  0  0  0  0  0
    8.1258   -1.5772    0.0000 H   0  0  0  0  0  0  0  0  0  0  0  0
    7.7998    0.8999    0.0000 H   0  0  0  0  0  0  0  0  0  0  0  0
    6.3509    1.7216    0.0000 H   0  0  0  0  0  0  0  0  0  0  0  0
    6.3509   -1.5876    0.0000 H   0  0  0  0  0  0  0  0  0  0  0  0
    2.5560   -0.3961    0.0000 H   0  0  0  0  0  0  0  0  0  0  0  0
    2.3291   -1.2430    0.0000 H   0  0  0  0  0  0  0  0  0  0  0  0
    3.1760   -1.4699    0.0000 H   0  0  0  0  0  0  0  0  0  0  0  0
  1  2  1  0  0  0  0
  2  3  1  0  0  0  0
  3  4  2  0  0  0  0
  4  5  1  0  0  0  0
  5  6  2  0  0  0  0
  6  7  1  0  0  0  0
  2  7  2  0  0  0  0
  6  8  1  0  0  0  0
  8  9  2  0  0  0  0
  8 10  1  0  0  0  0
 10 11  1  0  0  0  0
 11 12  2  0  0  0  0
  5 12  1  0  0  0  0
 11 13  1  0  0  0  0
 13 14  1  0  0  0  0
 13 15  1  0  0  0  0
 13 16  1  0  0  0  0
 10 17  1  0  0  0  0
  1 18  1  0  0  0  0
  1 19  1  0  0  0  0
  3 20  1  0  0  0  0
  4 21  1  0  0  0  0
  7 22  1  0  0  0  0
 17 23  1  0  0  0  0
 17 24  1  0  0  0  0
 17 25  1  0  0  0  0
M  END
> <UNIQUE_SMILES>
CN1C(=O)C2=C(C=CC(=C2)N)N=C1C(F)(F)F

> <USER_SUPPLIED_SMILES>
Nc1ccc2c(c1)c(=O)n(c(n2)C(F)(F)F)C

$$$$
C9H2F6N2O
APtclcactv12202015312D 0   0.00000     0.00000    27
 
 20 21  0  0  0  0  0  0  0  0999 V2000
    8.1282    1.1084    0.0000 F   0  0  0  0  0  0  0  0  0  0  0  0
    7.2641    0.6051    0.0000 C   0  0  0  0  0  0  0  0  0  0  0  0
    6.3580    1.1189    0.0000 C   0  0  0  0  0  0  0  0  0  0  0  0
    5.4641    0.5843    0.0000 C   0  0  0  0  0  0  0  0  0  0  0  0
    4.5981    1.0843    0.0000 N   0  0  0  0  0  0  0  0  0  0  0  0
    3.7321    0.5843    0.0000 C   0  0  0  0  0  0  0  0  0  0  0  0
    3.7321   -0.4157    0.0000 N   0  0  0  0  0  0  0  0  0  0  0  0
    3.1951   -0.7257    0.0000 H   0  0  0  0  0  0  0  0  0  0  0  0
    4.5981   -0.9157    0.0000 C   0  0  0  0  0  0  0  0  0  0  0  0
    4.5981   -1.9157    0.0000 O   0  0  0  0  0  0  0  0  0  0  0  0
    5.4641   -0.4157    0.0000 C   0  0  0  0  0  0  0  0  0  0  0  0
    6.3580   -0.9504    0.0000 C   0  0  0  0  0  0  0  0  0  0  0  0
    7.2641   -0.4365    0.0000 C   0  0  0  0  0  0  0  0  0  0  0  0
    8.1282   -0.9399    0.0000 F   0  0  0  0  0  0  0  0  0  0  0  0
    6.3465   -1.9503    0.0000 F   0  0  0  0  0  0  0  0  0  0  0  0
    2.8660    1.0843    0.0000 C   0  0  0  0  0  0  0  0  0  0  0  0
    2.0000    1.5843    0.0000 F   0  0  0  0  0  0  0  0  0  0  0  0
    3.3660    1.9503    0.0000 F   0  0  0  0  0  0  0  0  0  0  0  0
    2.3660    0.2183    0.0000 F   0  0  0  0  0  0  0  0  0  0  0  0
    6.3509    1.7389    0.0000 H   0  0  0  0  0  0  0  0  0  0  0  0
  1  2  1  0  0  0  0
  2  3  2  0  0  0  0
  3  4  1  0  0  0  0
  4  5  1  0  0  0  0
  5  6  2  0  0  0  0
  6  7  1  0  0  0  0
  7  8  1  0  0  0  0
  7  9  1  0  0  0  0
  9 10  2  0  0  0  0
  9 11  1  0  0  0  0
  4 11  2  0  0  0  0
 11 12  1  0  0  0  0
 12 13  2  0  0  0  0
  2 13  1  0  0  0  0
 13 14  1  0  0  0  0
 12 15  1  0  0  0  0
  6 16  1  0  0  0  0
 16 17  1  0  0  0  0
 16 18  1  0  0  0  0
 16 19  1  0  0  0  0
  3 20  1  0  0  0  0
M  END
> <UNIQUE_SMILES>
FC1=CC2=C(C(=O)NC(=N2)C(F)(F)F)C(=C1F)F

> <USER_SUPPLIED_SMILES>
Fc1cc2nc([nH]c(=O)c2c(c1F)F)C(F)(F)F

$$$$
C12H12F3N3O
APtclcactv12202015312D 0   0.00000     0.00000    28
 
 31 32  0  0  0  0  0  0  0  0999 V2000
    8.1282   -0.9572    0.0000 N   0  0  0  0  0  0  0  0  0  0  0  0
    7.2641   -0.4538    0.0000 C   0  0  0  0  0  0  0  0  0  0  0  0
    7.2641    0.5878    0.0000 C   0  0  0  0  0  0  0  0  0  0  0  0
    6.3580    1.1016    0.0000 C   0  0  0  0  0  0  0  0  0  0  0  0
    5.4641    0.5670    0.0000 C   0  0  0  0  0  0  0  0  0  0  0  0
    5.4641   -0.4330    0.0000 C   0  0  0  0  0  0  0  0  0  0  0  0
    6.3580   -0.9677    0.0000 C   0  0  0  0  0  0  0  0  0  0  0  0
    4.5981   -0.9330    0.0000 C   0  0  0  0  0  0  0  0  0  0  0  0
    4.5981   -1.9330    0.0000 O   0  0  0  0  0  0  0  0  0  0  0  0
    3.7321   -0.4330    0.0000 N   0  0  0  0  0  0  0  0  0  0  0  0
    3.7321    0.5670    0.0000 C   0  0  0  0  0  0  0  0  0  0  0  0
    4.5981    1.0670    0.0000 N   0  0  0  0  0  0  0  0  0  0  0  0
    2.8660    1.0670    0.0000 C   0  0  0  0  0  0  0  0  0  0  0  0
    2.0000    1.5670    0.0000 F   0  0  0  0  0  0  0  0  0  0  0  0
    3.3660    1.9330    0.0000 F   0  0  0  0  0  0  0  0  0  0  0  0
    2.3660    0.2010    0.0000 F   0  0  0  0  0  0  0  0  0  0  0  0
    2.8660   -0.9330    0.0000 C   0  0  0  0  0  0  0  0  0  0  0  0
    2.8660   -1.9330    0.0000 C   0  0  0  0  0  0  0  0  0  0  0  0
    2.0000   -0.4330    0.0000 C   0  0  0  0  0  0  0  0  0  0  0  0
    8.6663   -0.6492    0.0000 H   0  0  0  0  0  0  0  0  0  0  0  0
    8.1258   -1.5772    0.0000 H   0  0  0  0  0  0  0  0  0  0  0  0
    7.7998    0.8999    0.0000 H   0  0  0  0  0  0  0  0  0  0  0  0
    6.3509    1.7216    0.0000 H   0  0  0  0  0  0  0  0  0  0  0  0
    6.3509   -1.5876    0.0000 H   0  0  0  0  0  0  0  0  0  0  0  0
    2.8660   -0.3130    0.0000 H   0  0  0  0  0  0  0  0  0  0  0  0
    2.2460   -1.9330    0.0000 H   0  0  0  0  0  0  0  0  0  0  0  0
    2.8660   -2.5530    0.0000 H   0  0  0  0  0  0  0  0  0  0  0  0
    3.4860   -1.9330    0.0000 H   0  0  0  0  0  0  0  0  0  0  0  0
    2.3100    0.1039    0.0000 H   0  0  0  0  0  0  0  0  0  0  0  0
    1.4631   -0.1230    0.0000 H   0  0  0  0  0  0  0  0  0  0  0  0
    1.6900   -0.9699    0.0000 H   0  0  0  0  0  0  0  0  0  0  0  0
  1  2  1  0  0  0  0
  2  3  1  0  0  0  0
  3  4  2  0  0  0  0
  4  5  1  0  0  0  0
  5  6  2  0  0  0  0
  6  7  1  0  0  0  0
  2  7  2  0  0  0  0
  6  8  1  0  0  0  0
  8  9  2  0  0  0  0
  8 10  1  0  0  0  0
 10 11  1  0  0  0  0
 11 12  2  0  0  0  0
  5 12  1  0  0  0  0
 11 13  1  0  0  0  0
 13 14  1  0  0  0  0
 13 15  1  0  0  0  0
 13 16  1  0  0  0  0
 10 17  1  0  0  0  0
 17 18  1  0  0  0  0
 17 19  1  0  0  0  0
  1 20  1  0  0  0  0
  1 21  1  0  0  0  0
  3 22  1  0  0  0  0
  4 23  1  0  0  0  0
  7 24  1  0  0  0  0
 17 25  1  0  0  0  0
 18 26  1  0  0  0  0
 18 27  1  0  0  0  0
 18 28  1  0  0  0  0
 19 29  1  0  0  0  0
 19 30  1  0  0  0  0
 19 31  1  0  0  0  0
M  END
> <UNIQUE_SMILES>
CC(C)N1C(=O)C2=C(C=CC(=C2)N)N=C1C(F)(F)F

> <USER_SUPPLIED_SMILES>
Nc1ccc2c(c1)c(=O)n(c(n2)C(F)(F)F)C(C)C

$$$$
C9H9N3O
APtclcactv12202015312D 0   0.00000     0.00000    29
 
 22 23  0  0  0  0  0  0  0  0999 V2000
    2.5369   -0.5173    0.0000 N   0  0  0  0  0  0  0  0  0  0  0  0
    3.4030   -0.0173    0.0000 N   0  0  0  0  0  0  0  0  0  0  0  0
    3.4030    0.9827    0.0000 C   0  0  0  0  0  0  0  0  0  0  0  0
    2.5369    1.4827    0.0000 C   0  0  0  0  0  0  0  0  0  0  0  0
    4.2690    1.4827    0.0000 N   0  0  0  0  0  0  0  0  0  0  0  0
    5.1350    0.9827    0.0000 C   0  0  0  0  0  0  0  0  0  0  0  0
    5.1350   -0.0173    0.0000 C   0  0  0  0  0  0  0  0  0  0  0  0
    4.2690   -0.5173    0.0000 C   0  0  0  0  0  0  0  0  0  0  0  0
    4.2690   -1.5173    0.0000 O   0  0  0  0  0  0  0  0  0  0  0  0
    6.0290   -0.5520    0.0000 C   0  0  0  0  0  0  0  0  0  0  0  0
    6.9350   -0.0381    0.0000 C   0  0  0  0  0  0  0  0  0  0  0  0
    6.9350    1.0035    0.0000 C   0  0  0  0  0  0  0  0  0  0  0  0
    6.0290    1.5173    0.0000 C   0  0  0  0  0  0  0  0  0  0  0  0
    2.0000   -0.2073    0.0000 H   0  0  0  0  0  0  0  0  0  0  0  0
    2.5369   -1.1373    0.0000 H   0  0  0  0  0  0  0  0  0  0  0  0
    2.8469    2.0196    0.0000 H   0  0  0  0  0  0  0  0  0  0  0  0
    2.0000    1.7927    0.0000 H   0  0  0  0  0  0  0  0  0  0  0  0
    2.2269    0.9457    0.0000 H   0  0  0  0  0  0  0  0  0  0  0  0
    6.0218   -1.1720    0.0000 H   0  0  0  0  0  0  0  0  0  0  0  0
    7.4708   -0.3502    0.0000 H   0  0  0  0  0  0  0  0  0  0  0  0
    7.4708    1.3156    0.0000 H   0  0  0  0  0  0  0  0  0  0  0  0
    6.0218    2.1373    0.0000 H   0  0  0  0  0  0  0  0  0  0  0  0
  1  2  1  0  0  0  0
  2  3  1  0  0  0  0
  3  4  1  0  0  0  0
  3  5  2  0  0  0  0
  5  6  1  0  0  0  0
  6  7  1  0  0  0  0
  7  8  1  0  0  0  0
  2  8  1  0  0  0  0
  8  9  2  0  0  0  0
  7 10  2  0  0  0  0
 10 11  1  0  0  0  0
 11 12  2  0  0  0  0
 12 13  1  0  0  0  0
  6 13  2  0  0  0  0
  1 14  1  0  0  0  0
  1 15  1  0  0  0  0
  4 16  1  0  0  0  0
  4 17  1  0  0  0  0
  4 18  1  0  0  0  0
 10 19  1  0  0  0  0
 11 20  1  0  0  0  0
 12 21  1  0  0  0  0
 13 22  1  0  0  0  0
M  END
> <UNIQUE_SMILES>
CC1=NC2=CC=CC=C2C(=O)N1N

> <USER_SUPPLIED_SMILES>
Nn1c(C)nc2c(c1=O)cccc2

$$$$
C10H6F4N2O
APtclcactv12202015312D 0   0.00000     0.00000    30
 
 23 24  0  0  0  0  0  0  0  0999 V2000
    8.1282   -0.9399    0.0000 C   0  0  0  0  0  0  0  0  0  0  0  0
    7.2641   -0.4365    0.0000 C   0  0  0  0  0  0  0  0  0  0  0  0
    7.2641    0.6051    0.0000 C   0  0  0  0  0  0  0  0  0  0  0  0
    6.3580    1.1189    0.0000 C   0  0  0  0  0  0  0  0  0  0  0  0
    5.4641    0.5843    0.0000 C   0  0  0  0  0  0  0  0  0  0  0  0
    5.4641   -0.4157    0.0000 C   0  0  0  0  0  0  0  0  0  0  0  0
    6.3580   -0.9504    0.0000 C   0  0  0  0  0  0  0  0  0  0  0  0
    6.3465   -1.9503    0.0000 F   0  0  0  0  0  0  0  0  0  0  0  0
    4.5981   -0.9157    0.0000 C   0  0  0  0  0  0  0  0  0  0  0  0
    4.5981   -1.9157    0.0000 O   0  0  0  0  0  0  0  0  0  0  0  0
    3.7321   -0.4157    0.0000 N   0  0  0  0  0  0  0  0  0  0  0  0
    3.1951   -0.7257    0.0000 H   0  0  0  0  0  0  0  0  0  0  0  0
    3.7321    0.5843    0.0000 C   0  0  0  0  0  0  0  0  0  0  0  0
    4.5981    1.0843    0.0000 N   0  0  0  0  0  0  0  0  0  0  0  0
    2.8660    1.0843    0.0000 C   0  0  0  0  0  0  0  0  0  0  0  0
    2.0000    1.5843    0.0000 F   0  0  0  0  0  0  0  0  0  0  0  0
    3.3660    1.9503    0.0000 F   0  0  0  0  0  0  0  0  0  0  0  0
    2.3660    0.2183    0.0000 F   0  0  0  0  0  0  0  0  0  0  0  0
    7.8161   -1.4756    0.0000 H   0  0  0  0  0  0  0  0  0  0  0  0
    8.6639   -1.2519    0.0000 H   0  0  0  0  0  0  0  0  0  0  0  0
    8.4403   -0.4041    0.0000 H   0  0  0  0  0  0  0  0  0  0  0  0
    7.7998    0.9172    0.0000 H   0  0  0  0  0  0  0  0  0  0  0  0
    6.3509    1.7389    0.0000 H   0  0  0  0  0  0  0  0  0  0  0  0
  1  2  1  0  0  0  0
  2  3  1  0  0  0  0
  3  4  2  0  0  0  0
  4  5  1  0  0  0  0
  5  6  2  0  0  0  0
  6  7  1  0  0  0  0
  2  7  2  0  0  0  0
  7  8  1  0  0  0  0
  6  9  1  0  0  0  0
  9 10  2  0  0  0  0
  9 11  1  0  0  0  0
 11 12  1  0  0  0  0
 11 13  1  0  0  0  0
 13 14  2  0  0  0  0
  5 14  1  0  0  0  0
 13 15  1  0  0  0  0
 15 16  1  0  0  0  0
 15 17  1  0  0  0  0
 15 18  1  0  0  0  0
  1 19  1  0  0  0  0
  1 20  1  0  0  0  0
  1 21  1  0  0  0  0
  3 22  1  0  0  0  0
  4 23  1  0  0  0  0
M  END
> <UNIQUE_SMILES>
CC1=C(F)C2=C(C=C1)N=C(NC2=O)C(F)(F)F

> <USER_SUPPLIED_SMILES>
Cc1ccc2c(c1F)c(=O)[nH]c(n2)C(F)(F)F

$$$$
C9H9NO3
APtclcactv12202015312D 0   0.00000     0.00000    31
 
 22 22  0  0  0  0  0  0  0  0999 V2000
    2.0000    0.5000    0.0000 O   0  0  0  0  0  0  0  0  0  0  0  0
    2.8660    0.0000    0.0000 C   0  0  0  0  0  0  0  0  0  0  0  0
    2.8660   -1.0000    0.0000 C   0  0  0  0  0  0  0  0  0  0  0  0
    2.0000   -1.5000    0.0000 C   0  0  0  0  0  0  0  0  0  0  0  0
    2.0000   -2.5000    0.0000 C   0  0  0  0  0  0  0  0  0  0  0  0
    2.8660   -3.0000    0.0000 C   0  0  0  0  0  0  0  0  0  0  0  0
    3.7321   -2.5000    0.0000 C   0  0  0  0  0  0  0  0  0  0  0  0
    3.7321   -1.5000    0.0000 C   0  0  0  0  0  0  0  0  0  0  0  0
    3.7321    0.5000    0.0000 C   0  0  0  0  0  0  0  0  0  0  0  0
    3.7321    1.5000    0.0000 C   0  0  0  0  0  0  0  0  0  0  0  0
    4.5981    2.0000    0.0000 N   0  3  0  0  0  0  0  0  0  0  0  0
    5.4641    1.5000    0.0000 O   0  0  0  0  0  0  0  0  0  0  0  0
    4.5981    3.0000    0.0000 O   0  5  0  0  0  0  0  0  0  0  0  0
    1.4631   -1.1900    0.0000 H   0  0  0  0  0  0  0  0  0  0  0  0
    1.4631   -2.8100    0.0000 H   0  0  0  0  0  0  0  0  0  0  0  0
    2.8660   -3.6200    0.0000 H   0  0  0  0  0  0  0  0  0  0  0  0
    4.2690   -2.8100    0.0000 H   0  0  0  0  0  0  0  0  0  0  0  0
    4.2690   -1.1900    0.0000 H   0  0  0  0  0  0  0  0  0  0  0  0
    3.9441   -0.0826    0.0000 H   0  0  0  0  0  0  0  0  0  0  0  0
    4.3426    0.6077    0.0000 H   0  0  0  0  0  0  0  0  0  0  0  0
    3.5200    2.0826    0.0000 H   0  0  0  0  0  0  0  0  0  0  0  0
    3.1215    1.3923    0.0000 H   0  0  0  0  0  0  0  0  0  0  0  0
  1  2  2  0  0  0  0
  2  3  1  0  0  0  0
  3  4  1  0  0  0  0
  4  5  2  0  0  0  0
  5  6  1  0  0  0  0
  6  7  2  0  0  0  0
  7  8  1  0  0  0  0
  3  8  2  0  0  0  0
  2  9  1  0  0  0  0
  9 10  1  0  0  0  0
 10 11  1  0  0  0  0
 11 12  2  0  0  0  0
 11 13  1  0  0  0  0
  4 14  1  0  0  0  0
  5 15  1  0  0  0  0
  6 16  1  0  0  0  0
  7 17  1  0  0  0  0
  8 18  1  0  0  0  0
  9 19  1  0  0  0  0
  9 20  1  0  0  0  0
 10 21  1  0  0  0  0
 10 22  1  0  0  0  0
M  CHG  2  11   1  13  -1
M  END
> <UNIQUE_SMILES>
[O-][N+](=O)CCC(=O)C1=CC=CC=C1

> <USER_SUPPLIED_SMILES>
O=C(c1ccccc1)CC[N+](=O)[O-]

$$$$
C10H11NO3
APtclcactv12202015312D 0   0.00000     0.00000    32
 
 25 25  0  0  1  0  0  0  0  0999 V2000
    2.8660    2.0000    0.0000 C   0  0  0  0  0  0  0  0  0  0  0  0
    3.7321    1.5000    0.0000 C   0  0  2  0  0  0  0  0  0  0  0  0
    3.7321    2.1200    0.0000 H   0  0  0  0  0  0  0  0  0  0  0  0
    4.5981    2.0000    0.0000 N   0  3  0  0  0  0  0  0  0  0  0  0
    5.4641    1.5000    0.0000 O   0  0  0  0  0  0  0  0  0  0  0  0
    4.5981    3.0000    0.0000 O   0  5  0  0  0  0  0  0  0  0  0  0
    3.7321    0.5000    0.0000 C   0  0  0  0  0  0  0  0  0  0  0  0
    2.8660    0.0000    0.0000 C   0  0  0  0  0  0  0  0  0  0  0  0
    2.0000    0.5000    0.0000 O   0  0  0  0  0  0  0  0  0  0  0  0
    2.8660   -1.0000    0.0000 C   0  0  0  0  0  0  0  0  0  0  0  0
    2.0000   -1.5000    0.0000 C   0  0  0  0  0  0  0  0  0  0  0  0
    2.0000   -2.5000    0.0000 C   0  0  0  0  0  0  0  0  0  0  0  0
    2.8660   -3.0000    0.0000 C   0  0  0  0  0  0  0  0  0  0  0  0
    3.7321   -2.5000    0.0000 C   0  0  0  0  0  0  0  0  0  0  0  0
    3.7321   -1.5000    0.0000 C   0  0  0  0  0  0  0  0  0  0  0  0
    3.1760    2.5369    0.0000 H   0  0  0  0  0  0  0  0  0  0  0  0
    2.3291    2.3100    0.0000 H   0  0  0  0  0  0  0  0  0  0  0  0
    2.5560    1.4631    0.0000 H   0  0  0  0  0  0  0  0  0  0  0  0
    3.9441   -0.0826    0.0000 H   0  0  0  0  0  0  0  0  0  0  0  0
    4.3426    0.6077    0.0000 H   0  0  0  0  0  0  0  0  0  0  0  0
    1.4631   -1.1900    0.0000 H   0  0  0  0  0  0  0  0  0  0  0  0
    1.4631   -2.8100    0.0000 H   0  0  0  0  0  0  0  0  0  0  0  0
    2.8660   -3.6200    0.0000 H   0  0  0  0  0  0  0  0  0  0  0  0
    4.2690   -2.8100    0.0000 H   0  0  0  0  0  0  0  0  0  0  0  0
    4.2690   -1.1900    0.0000 H   0  0  0  0  0  0  0  0  0  0  0  0
  1  2  1  0  0  0  0
  2  3  1  0  0  0  0
  2  4  1  6  0  0  0
  4  5  2  0  0  0  0
  4  6  1  0  0  0  0
  2  7  1  0  0  0  0
  7  8  1  0  0  0  0
  8  9  2  0  0  0  0
  8 10  1  0  0  0  0
 10 11  1  0  0  0  0
 11 12  2  0  0  0  0
 12 13  1  0  0  0  0
 13 14  2  0  0  0  0
 14 15  1  0  0  0  0
 10 15  2  0  0  0  0
  1 16  1  0  0  0  0
  1 17  1  0  0  0  0
  1 18  1  0  0  0  0
  7 19  1  0  0  0  0
  7 20  1  0  0  0  0
 11 21  1  0  0  0  0
 12 22  1  0  0  0  0
 13 23  1  0  0  0  0
 14 24  1  0  0  0  0
 15 25  1  0  0  0  0
M  CHG  2   4   1   6  -1
M  END
> <UNIQUE_SMILES>
C[C@@H](CC(=O)C1=CC=CC=C1)[N+]([O-])=O

> <USER_SUPPLIED_SMILES>
C[C@H]([N+](=O)[O-])CC(=O)c1ccccc1

$$$$
C10H11NO3
APtclcactv12202015312D 0   0.00000     0.00000    33
 
 25 25  0  0  1  0  0  0  0  0999 V2000
    2.8660    2.0000    0.0000 C   0  0  0  0  0  0  0  0  0  0  0  0
    3.7321    1.5000    0.0000 C   0  0  1  0  0  0  0  0  0  0  0  0
    3.7321    2.1200    0.0000 H   0  0  0  0  0  0  0  0  0  0  0  0
    4.5981    2.0000    0.0000 N   0  3  0  0  0  0  0  0  0  0  0  0
    5.4641    1.5000    0.0000 O   0  0  0  0  0  0  0  0  0  0  0  0
    4.5981    3.0000    0.0000 O   0  5  0  0  0  0  0  0  0  0  0  0
    3.7321    0.5000    0.0000 C   0  0  0  0  0  0  0  0  0  0  0  0
    2.8660    0.0000    0.0000 C   0  0  0  0  0  0  0  0  0  0  0  0
    2.0000    0.5000    0.0000 O   0  0  0  0  0  0  0  0  0  0  0  0
    2.8660   -1.0000    0.0000 C   0  0  0  0  0  0  0  0  0  0  0  0
    2.0000   -1.5000    0.0000 C   0  0  0  0  0  0  0  0  0  0  0  0
    2.0000   -2.5000    0.0000 C   0  0  0  0  0  0  0  0  0  0  0  0
    2.8660   -3.0000    0.0000 C   0  0  0  0  0  0  0  0  0  0  0  0
    3.7321   -2.5000    0.0000 C   0  0  0  0  0  0  0  0  0  0  0  0
    3.7321   -1.5000    0.0000 C   0  0  0  0  0  0  0  0  0  0  0  0
    3.1760    2.5369    0.0000 H   0  0  0  0  0  0  0  0  0  0  0  0
    2.3291    2.3100    0.0000 H   0  0  0  0  0  0  0  0  0  0  0  0
    2.5560    1.4631    0.0000 H   0  0  0  0  0  0  0  0  0  0  0  0
    3.9441   -0.0826    0.0000 H   0  0  0  0  0  0  0  0  0  0  0  0
    4.3426    0.6077    0.0000 H   0  0  0  0  0  0  0  0  0  0  0  0
    1.4631   -1.1900    0.0000 H   0  0  0  0  0  0  0  0  0  0  0  0
    1.4631   -2.8100    0.0000 H   0  0  0  0  0  0  0  0  0  0  0  0
    2.8660   -3.6200    0.0000 H   0  0  0  0  0  0  0  0  0  0  0  0
    4.2690   -2.8100    0.0000 H   0  0  0  0  0  0  0  0  0  0  0  0
    4.2690   -1.1900    0.0000 H   0  0  0  0  0  0  0  0  0  0  0  0
  1  2  1  0  0  0  0
  2  3  1  0  0  0  0
  2  4  1  1  0  0  0
  4  5  2  0  0  0  0
  4  6  1  0  0  0  0
  2  7  1  0  0  0  0
  7  8  1  0  0  0  0
  8  9  2  0  0  0  0
  8 10  1  0  0  0  0
 10 11  1  0  0  0  0
 11 12  2  0  0  0  0
 12 13  1  0  0  0  0
 13 14  2  0  0  0  0
 14 15  1  0  0  0  0
 10 15  2  0  0  0  0
  1 16  1  0  0  0  0
  1 17  1  0  0  0  0
  1 18  1  0  0  0  0
  7 19  1  0  0  0  0
  7 20  1  0  0  0  0
 11 21  1  0  0  0  0
 12 22  1  0  0  0  0
 13 23  1  0  0  0  0
 14 24  1  0  0  0  0
 15 25  1  0  0  0  0
M  CHG  2   4   1   6  -1
M  END
> <UNIQUE_SMILES>
C[C@H](CC(=O)C1=CC=CC=C1)[N+]([O-])=O

> <USER_SUPPLIED_SMILES>
C[C@@H]([N+](=O)[O-])CC(=O)c1ccccc1

$$$$
C11H13NO3
APtclcactv12202015312D 0   0.00000     0.00000    34
 
 28 28  0  0  0  0  0  0  0  0999 V2000
    2.8660    3.0000    0.0000 C   0  0  0  0  0  0  0  0  0  0  0  0
    2.8660    2.0000    0.0000 C   0  0  0  0  0  0  0  0  0  0  0  0
    3.7321    1.5000    0.0000 C   0  0  0  0  0  0  0  0  0  0  0  0
    4.5981    2.0000    0.0000 N   0  3  0  0  0  0  0  0  0  0  0  0
    5.4641    1.5000    0.0000 O   0  0  0  0  0  0  0  0  0  0  0  0
    4.5981    3.0000    0.0000 O   0  5  0  0  0  0  0  0  0  0  0  0
    3.7321    0.5000    0.0000 C   0  0  0  0  0  0  0  0  0  0  0  0
    2.8660    0.0000    0.0000 C   0  0  0  0  0  0  0  0  0  0  0  0
    2.0000    0.5000    0.0000 O   0  0  0  0  0  0  0  0  0  0  0  0
    2.8660   -1.0000    0.0000 C   0  0  0  0  0  0  0  0  0  0  0  0
    2.0000   -1.5000    0.0000 C   0  0  0  0  0  0  0  0  0  0  0  0
    2.0000   -2.5000    0.0000 C   0  0  0  0  0  0  0  0  0  0  0  0
    2.8660   -3.0000    0.0000 C   0  0  0  0  0  0  0  0  0  0  0  0
    3.7321   -2.5000    0.0000 C   0  0  0  0  0  0  0  0  0  0  0  0
    3.7321   -1.5000    0.0000 C   0  0  0  0  0  0  0  0  0  0  0  0
    3.4860    3.0000    0.0000 H   0  0  0  0  0  0  0  0  0  0  0  0
    2.8660    3.6200    0.0000 H   0  0  0  0  0  0  0  0  0  0  0  0
    2.2460    3.0000    0.0000 H   0  0  0  0  0  0  0  0  0  0  0  0
    2.2554    2.1077    0.0000 H   0  0  0  0  0  0  0  0  0  0  0  0
    2.6540    1.4174    0.0000 H   0  0  0  0  0  0  0  0  0  0  0  0
    3.7321    2.1200    0.0000 H   0  0  0  0  0  0  0  0  0  0  0  0
    3.9441   -0.0826    0.0000 H   0  0  0  0  0  0  0  0  0  0  0  0
    4.3426    0.6077    0.0000 H   0  0  0  0  0  0  0  0  0  0  0  0
    1.4631   -1.1900    0.0000 H   0  0  0  0  0  0  0  0  0  0  0  0
    1.4631   -2.8100    0.0000 H   0  0  0  0  0  0  0  0  0  0  0  0
    2.8660   -3.6200    0.0000 H   0  0  0  0  0  0  0  0  0  0  0  0
    4.2690   -2.8100    0.0000 H   0  0  0  0  0  0  0  0  0  0  0  0
    4.2690   -1.1900    0.0000 H   0  0  0  0  0  0  0  0  0  0  0  0
  1  2  1  0  0  0  0
  2  3  1  0  0  0  0
  3  4  1  0  0  0  0
  4  5  2  0  0  0  0
  4  6  1  0  0  0  0
  3  7  1  0  0  0  0
  7  8  1  0  0  0  0
  8  9  2  0  0  0  0
  8 10  1  0  0  0  0
 10 11  1  0  0  0  0
 11 12  2  0  0  0  0
 12 13  1  0  0  0  0
 13 14  2  0  0  0  0
 14 15  1  0  0  0  0
 10 15  2  0  0  0  0
  1 16  1  0  0  0  0
  1 17  1  0  0  0  0
  1 18  1  0  0  0  0
  2 19  1  0  0  0  0
  2 20  1  0  0  0  0
  3 21  1  0  0  0  0
  7 22  1  0  0  0  0
  7 23  1  0  0  0  0
 11 24  1  0  0  0  0
 12 25  1  0  0  0  0
 13 26  1  0  0  0  0
 14 27  1  0  0  0  0
 15 28  1  0  0  0  0
M  CHG  2   4   1   6  -1
M  END
> <UNIQUE_SMILES>
CCC(CC(=O)C1=CC=CC=C1)[N+]([O-])=O

> <USER_SUPPLIED_SMILES>
CCC([N+](=O)[O-])CC(=O)c1ccccc1

$$$$
C11H13NO3
APtclcactv12202015312D 0   0.00000     0.00000    35
 
 28 28  0  0  1  0  0  0  0  0999 V2000
    2.8660    3.0000    0.0000 C   0  0  0  0  0  0  0  0  0  0  0  0
    2.8660    2.0000    0.0000 C   0  0  0  0  0  0  0  0  0  0  0  0
    3.7321    1.5000    0.0000 C   0  0  1  0  0  0  0  0  0  0  0  0
    3.7321    2.1200    0.0000 H   0  0  0  0  0  0  0  0  0  0  0  0
    4.5981    2.0000    0.0000 N   0  3  0  0  0  0  0  0  0  0  0  0
    5.4641    1.5000    0.0000 O   0  0  0  0  0  0  0  0  0  0  0  0
    4.5981    3.0000    0.0000 O   0  5  0  0  0  0  0  0  0  0  0  0
    3.7321    0.5000    0.0000 C   0  0  0  0  0  0  0  0  0  0  0  0
    2.8660    0.0000    0.0000 C   0  0  0  0  0  0  0  0  0  0  0  0
    2.0000    0.5000    0.0000 O   0  0  0  0  0  0  0  0  0  0  0  0
    2.8660   -1.0000    0.0000 C   0  0  0  0  0  0  0  0  0  0  0  0
    2.0000   -1.5000    0.0000 C   0  0  0  0  0  0  0  0  0  0  0  0
    2.0000   -2.5000    0.0000 C   0  0  0  0  0  0  0  0  0  0  0  0
    2.8660   -3.0000    0.0000 C   0  0  0  0  0  0  0  0  0  0  0  0
    3.7321   -2.5000    0.0000 C   0  0  0  0  0  0  0  0  0  0  0  0
    3.7321   -1.5000    0.0000 C   0  0  0  0  0  0  0  0  0  0  0  0
    3.4860    3.0000    0.0000 H   0  0  0  0  0  0  0  0  0  0  0  0
    2.8660    3.6200    0.0000 H   0  0  0  0  0  0  0  0  0  0  0  0
    2.2460    3.0000    0.0000 H   0  0  0  0  0  0  0  0  0  0  0  0
    2.2554    2.1077    0.0000 H   0  0  0  0  0  0  0  0  0  0  0  0
    2.6540    1.4174    0.0000 H   0  0  0  0  0  0  0  0  0  0  0  0
    3.9441   -0.0826    0.0000 H   0  0  0  0  0  0  0  0  0  0  0  0
    4.3426    0.6077    0.0000 H   0  0  0  0  0  0  0  0  0  0  0  0
    1.4631   -1.1900    0.0000 H   0  0  0  0  0  0  0  0  0  0  0  0
    1.4631   -2.8100    0.0000 H   0  0  0  0  0  0  0  0  0  0  0  0
    2.8660   -3.6200    0.0000 H   0  0  0  0  0  0  0  0  0  0  0  0
    4.2690   -2.8100    0.0000 H   0  0  0  0  0  0  0  0  0  0  0  0
    4.2690   -1.1900    0.0000 H   0  0  0  0  0  0  0  0  0  0  0  0
  1  2  1  0  0  0  0
  2  3  1  0  0  0  0
  3  4  1  0  0  0  0
  3  5  1  1  0  0  0
  5  6  2  0  0  0  0
  5  7  1  0  0  0  0
  3  8  1  0  0  0  0
  8  9  1  0  0  0  0
  9 10  2  0  0  0  0
  9 11  1  0  0  0  0
 11 12  1  0  0  0  0
 12 13  2  0  0  0  0
 13 14  1  0  0  0  0
 14 15  2  0  0  0  0
 15 16  1  0  0  0  0
 11 16  2  0  0  0  0
  1 17  1  0  0  0  0
  1 18  1  0  0  0  0
  1 19  1  0  0  0  0
  2 20  1  0  0  0  0
  2 21  1  0  0  0  0
  8 22  1  0  0  0  0
  8 23  1  0  0  0  0
 12 24  1  0  0  0  0
 13 25  1  0  0  0  0
 14 26  1  0  0  0  0
 15 27  1  0  0  0  0
 16 28  1  0  0  0  0
M  CHG  2   5   1   7  -1
M  END
> <UNIQUE_SMILES>
CC[C@H](CC(=O)C1=CC=CC=C1)[N+]([O-])=O

> <USER_SUPPLIED_SMILES>
CC[C@@H]([N+](=O)[O-])CC(=O)c1ccccc1

$$$$
C12H15NO3
APtclcactv12202015312D 0   0.00000     0.00000    36
 
 31 31  0  0  1  0  0  0  0  0999 V2000
    4.5981    3.0000    0.0000 C   0  0  0  0  0  0  0  0  0  0  0  0
    4.5981    2.0000    0.0000 C   0  0  0  0  0  0  0  0  0  0  0  0
    3.7321    1.5000    0.0000 C   0  0  2  0  0  0  0  0  0  0  0  0
    3.7321    2.1200    0.0000 H   0  0  0  0  0  0  0  0  0  0  0  0
    2.8660    2.0000    0.0000 N   0  3  0  0  0  0  0  0  0  0  0  0
    2.0000    1.5000    0.0000 O   0  0  0  0  0  0  0  0  0  0  0  0
    2.8660    3.0000    0.0000 O   0  5  0  0  0  0  0  0  0  0  0  0
    3.7321    0.5000    0.0000 C   0  0  0  0  0  0  0  0  0  0  0  0
    2.8660    0.0000    0.0000 C   0  0  0  0  0  0  0  0  0  0  0  0
    2.0000    0.5000    0.0000 O   0  0  0  0  0  0  0  0  0  0  0  0
    2.8660   -1.0000    0.0000 C   0  0  0  0  0  0  0  0  0  0  0  0
    2.0000   -1.5000    0.0000 C   0  0  0  0  0  0  0  0  0  0  0  0
    2.0000   -2.5000    0.0000 C   0  0  0  0  0  0  0  0  0  0  0  0
    2.8660   -3.0000    0.0000 C   0  0  0  0  0  0  0  0  0  0  0  0
    3.7321   -2.5000    0.0000 C   0  0  0  0  0  0  0  0  0  0  0  0
    3.7321   -1.5000    0.0000 C   0  0  0  0  0  0  0  0  0  0  0  0
    5.4641    1.5000    0.0000 C   0  0  0  0  0  0  0  0  0  0  0  0
    5.2181    3.0000    0.0000 H   0  0  0  0  0  0  0  0  0  0  0  0
    4.5981    3.6200    0.0000 H   0  0  0  0  0  0  0  0  0  0  0  0
    3.9781    3.0000    0.0000 H   0  0  0  0  0  0  0  0  0  0  0  0
    4.5981    1.3800    0.0000 H   0  0  0  0  0  0  0  0  0  0  0  0
    3.9441   -0.0826    0.0000 H   0  0  0  0  0  0  0  0  0  0  0  0
    4.3426    0.6077    0.0000 H   0  0  0  0  0  0  0  0  0  0  0  0
    1.4631   -1.1900    0.0000 H   0  0  0  0  0  0  0  0  0  0  0  0
    1.4631   -2.8100    0.0000 H   0  0  0  0  0  0  0  0  0  0  0  0
    2.8660   -3.6200    0.0000 H   0  0  0  0  0  0  0  0  0  0  0  0
    4.2690   -2.8100    0.0000 H   0  0  0  0  0  0  0  0  0  0  0  0
    4.2690   -1.1900    0.0000 H   0  0  0  0  0  0  0  0  0  0  0  0
    5.1541    0.9631    0.0000 H   0  0  0  0  0  0  0  0  0  0  0  0
    6.0010    1.1900    0.0000 H   0  0  0  0  0  0  0  0  0  0  0  0
    5.7741    2.0369    0.0000 H   0  0  0  0  0  0  0  0  0  0  0  0
  1  2  1  0  0  0  0
  2  3  1  0  0  0  0
  3  4  1  0  0  0  0
  3  5  1  1  0  0  0
  5  6  2  0  0  0  0
  5  7  1  0  0  0  0
  3  8  1  0  0  0  0
  8  9  1  0  0  0  0
  9 10  2  0  0  0  0
  9 11  1  0  0  0  0
 11 12  1  0  0  0  0
 12 13  2  0  0  0  0
 13 14  1  0  0  0  0
 14 15  2  0  0  0  0
 15 16  1  0  0  0  0
 11 16  2  0  0  0  0
  2 17  1  0  0  0  0
  1 18  1  0  0  0  0
  1 19  1  0  0  0  0
  1 20  1  0  0  0  0
  2 21  1  0  0  0  0
  8 22  1  0  0  0  0
  8 23  1  0  0  0  0
 12 24  1  0  0  0  0
 13 25  1  0  0  0  0
 14 26  1  0  0  0  0
 15 27  1  0  0  0  0
 16 28  1  0  0  0  0
 17 29  1  0  0  0  0
 17 30  1  0  0  0  0
 17 31  1  0  0  0  0
M  CHG  2   5   1   7  -1
M  END
> <UNIQUE_SMILES>
CC(C)[C@@H](CC(=O)C1=CC=CC=C1)[N+]([O-])=O

> <USER_SUPPLIED_SMILES>
CC([C@H]([N+](=O)[O-])CC(=O)c1ccccc1)C

$$$$
C10H13NO2
APtclcactv12202015312D 0   0.00000     0.00000    37
 
 26 26  0  0  1  0  0  0  0  0999 V2000
    4.5981    2.8450    0.0000 O   0  0  0  0  0  0  0  0  0  0  0  0
    4.5981    1.8450    0.0000 N   0  0  0  0  0  0  0  0  0  0  0  0
    3.7321    1.3450    0.0000 C   0  0  0  0  0  0  0  0  0  0  0  0
    2.8660    1.8450    0.0000 O   0  0  0  0  0  0  0  0  0  0  0  0
    3.7321    0.3450    0.0000 C   0  0  2  0  0  0  0  0  0  0  0  0
    3.7321   -0.2750    0.0000 H   0  0  0  0  0  0  0  0  0  0  0  0
    2.8660   -0.1550    0.0000 C   0  0  0  0  0  0  0  0  0  0  0  0
    2.8660   -1.1550    0.0000 C   0  0  0  0  0  0  0  0  0  0  0  0
    2.0000   -1.6550    0.0000 C   0  0  0  0  0  0  0  0  0  0  0  0
    2.0000   -2.6550    0.0000 C   0  0  0  0  0  0  0  0  0  0  0  0
    2.8660   -3.1550    0.0000 C   0  0  0  0  0  0  0  0  0  0  0  0
    3.7321   -2.6550    0.0000 C   0  0  0  0  0  0  0  0  0  0  0  0
    3.7321   -1.6550    0.0000 C   0  0  0  0  0  0  0  0  0  0  0  0
    4.5981   -0.1550    0.0000 C   0  0  0  0  0  0  0  0  0  0  0  0
    5.1350    3.1550    0.0000 H   0  0  0  0  0  0  0  0  0  0  0  0
    5.1350    1.5350    0.0000 H   0  0  0  0  0  0  0  0  0  0  0  0
    2.6540    0.4276    0.0000 H   0  0  0  0  0  0  0  0  0  0  0  0
    2.2554   -0.2627    0.0000 H   0  0  0  0  0  0  0  0  0  0  0  0
    1.4631   -1.3450    0.0000 H   0  0  0  0  0  0  0  0  0  0  0  0
    1.4631   -2.9650    0.0000 H   0  0  0  0  0  0  0  0  0  0  0  0
    2.8660   -3.7750    0.0000 H   0  0  0  0  0  0  0  0  0  0  0  0
    4.2690   -2.9650    0.0000 H   0  0  0  0  0  0  0  0  0  0  0  0
    4.2690   -1.3450    0.0000 H   0  0  0  0  0  0  0  0  0  0  0  0
    4.2881   -0.6919    0.0000 H   0  0  0  0  0  0  0  0  0  0  0  0
    5.1350   -0.4650    0.0000 H   0  0  0  0  0  0  0  0  0  0  0  0
    4.9081    0.3819    0.0000 H   0  0  0  0  0  0  0  0  0  0  0  0
  1  2  1  0  0  0  0
  2  3  1  0  0  0  0
  3  4  2  0  0  0  0
  3  5  1  0  0  0  0
  5  6  1  0  0  0  0
  5  7  1  0  0  0  0
  7  8  1  0  0  0  0
  8  9  1  0  0  0  0
  9 10  2  0  0  0  0
 10 11  1  0  0  0  0
 11 12  2  0  0  0  0
 12 13  1  0  0  0  0
  8 13  2  0  0  0  0
  5 14  1  1  0  0  0
  1 15  1  0  0  0  0
  2 16  1  0  0  0  0
  7 17  1  0  0  0  0
  7 18  1  0  0  0  0
  9 19  1  0  0  0  0
 10 20  1  0  0  0  0
 11 21  1  0  0  0  0
 12 22  1  0  0  0  0
 13 23  1  0  0  0  0
 14 24  1  0  0  0  0
 14 25  1  0  0  0  0
 14 26  1  0  0  0  0
M  END
> <UNIQUE_SMILES>
C[C@@H](CC1=CC=CC=C1)C(=O)NO

> <USER_SUPPLIED_SMILES>
ONC(=O)[C@H](Cc1ccccc1)C

$$$$
C12H15NO3
APtclcactv12202015312D 0   0.00000     0.00000    38
 
 31 31  0  0  1  0  0  0  0  0999 V2000
    4.5981    3.0000    0.0000 C   0  0  0  0  0  0  0  0  0  0  0  0
    4.5981    2.0000    0.0000 C   0  0  0  0  0  0  0  0  0  0  0  0
    3.7321    1.5000    0.0000 C   0  0  1  0  0  0  0  0  0  0  0  0
    3.7321    2.1200    0.0000 H   0  0  0  0  0  0  0  0  0  0  0  0
    2.8660    2.0000    0.0000 N   0  3  0  0  0  0  0  0  0  0  0  0
    2.0000    1.5000    0.0000 O   0  0  0  0  0  0  0  0  0  0  0  0
    2.8660    3.0000    0.0000 O   0  5  0  0  0  0  0  0  0  0  0  0
    3.7321    0.5000    0.0000 C   0  0  0  0  0  0  0  0  0  0  0  0
    2.8660    0.0000    0.0000 C   0  0  0  0  0  0  0  0  0  0  0  0
    2.0000    0.5000    0.0000 O   0  0  0  0  0  0  0  0  0  0  0  0
    2.8660   -1.0000    0.0000 C   0  0  0  0  0  0  0  0  0  0  0  0
    2.0000   -1.5000    0.0000 C   0  0  0  0  0  0  0  0  0  0  0  0
    2.0000   -2.5000    0.0000 C   0  0  0  0  0  0  0  0  0  0  0  0
    2.8660   -3.0000    0.0000 C   0  0  0  0  0  0  0  0  0  0  0  0
    3.7321   -2.5000    0.0000 C   0  0  0  0  0  0  0  0  0  0  0  0
    3.7321   -1.5000    0.0000 C   0  0  0  0  0  0  0  0  0  0  0  0
    5.4641    1.5000    0.0000 C   0  0  0  0  0  0  0  0  0  0  0  0
    5.2181    3.0000    0.0000 H   0  0  0  0  0  0  0  0  0  0  0  0
    4.5981    3.6200    0.0000 H   0  0  0  0  0  0  0  0  0  0  0  0
    3.9781    3.0000    0.0000 H   0  0  0  0  0  0  0  0  0  0  0  0
    4.5981    1.3800    0.0000 H   0  0  0  0  0  0  0  0  0  0  0  0
    3.9441   -0.0826    0.0000 H   0  0  0  0  0  0  0  0  0  0  0  0
    4.3426    0.6077    0.0000 H   0  0  0  0  0  0  0  0  0  0  0  0
    1.4631   -1.1900    0.0000 H   0  0  0  0  0  0  0  0  0  0  0  0
    1.4631   -2.8100    0.0000 H   0  0  0  0  0  0  0  0  0  0  0  0
    2.8660   -3.6200    0.0000 H   0  0  0  0  0  0  0  0  0  0  0  0
    4.2690   -2.8100    0.0000 H   0  0  0  0  0  0  0  0  0  0  0  0
    4.2690   -1.1900    0.0000 H   0  0  0  0  0  0  0  0  0  0  0  0
    5.1541    0.9631    0.0000 H   0  0  0  0  0  0  0  0  0  0  0  0
    6.0010    1.1900    0.0000 H   0  0  0  0  0  0  0  0  0  0  0  0
    5.7741    2.0369    0.0000 H   0  0  0  0  0  0  0  0  0  0  0  0
  1  2  1  0  0  0  0
  2  3  1  0  0  0  0
  3  4  1  0  0  0  0
  3  5  1  6  0  0  0
  5  6  2  0  0  0  0
  5  7  1  0  0  0  0
  3  8  1  0  0  0  0
  8  9  1  0  0  0  0
  9 10  2  0  0  0  0
  9 11  1  0  0  0  0
 11 12  1  0  0  0  0
 12 13  2  0  0  0  0
 13 14  1  0  0  0  0
 14 15  2  0  0  0  0
 15 16  1  0  0  0  0
 11 16  2  0  0  0  0
  2 17  1  0  0  0  0
  1 18  1  0  0  0  0
  1 19  1  0  0  0  0
  1 20  1  0  0  0  0
  2 21  1  0  0  0  0
  8 22  1  0  0  0  0
  8 23  1  0  0  0  0
 12 24  1  0  0  0  0
 13 25  1  0  0  0  0
 14 26  1  0  0  0  0
 15 27  1  0  0  0  0
 16 28  1  0  0  0  0
 17 29  1  0  0  0  0
 17 30  1  0  0  0  0
 17 31  1  0  0  0  0
M  CHG  2   5   1   7  -1
M  END
> <UNIQUE_SMILES>
CC(C)[C@H](CC(=O)C1=CC=CC=C1)[N+]([O-])=O

> <USER_SUPPLIED_SMILES>
CC([C@@H]([N+](=O)[O-])CC(=O)c1ccccc1)C

$$$$
C9H7Cl2NO3
APtclcactv12202015312D 0   0.00000     0.00000    39
 
 22 22  0  0  0  0  0  0  0  0999 V2000
    5.4641    3.5000    0.0000 O   0  5  0  0  0  0  0  0  0  0  0  0
    5.4641    2.5000    0.0000 N   0  3  0  0  0  0  0  0  0  0  0  0
    6.3301    2.0000    0.0000 O   0  0  0  0  0  0  0  0  0  0  0  0
    4.5981    2.0000    0.0000 C   0  0  0  0  0  0  0  0  0  0  0  0
    4.5981    1.0000    0.0000 C   0  0  0  0  0  0  0  0  0  0  0  0
    3.7321    0.5000    0.0000 C   0  0  0  0  0  0  0  0  0  0  0  0
    2.8660    1.0000    0.0000 O   0  0  0  0  0  0  0  0  0  0  0  0
    3.7321   -0.5000    0.0000 C   0  0  0  0  0  0  0  0  0  0  0  0
    4.5981   -1.0000    0.0000 C   0  0  0  0  0  0  0  0  0  0  0  0
    4.5981   -2.0000    0.0000 C   0  0  0  0  0  0  0  0  0  0  0  0
    3.7321   -2.5000    0.0000 C   0  0  0  0  0  0  0  0  0  0  0  0
    2.8660   -2.0000    0.0000 C   0  0  0  0  0  0  0  0  0  0  0  0
    2.8660   -1.0000    0.0000 C   0  0  0  0  0  0  0  0  0  0  0  0
    2.0000   -0.5000    0.0000 Cl  0  0  0  0  0  0  0  0  0  0  0  0
    3.7321   -3.5000    0.0000 Cl  0  0  0  0  0  0  0  0  0  0  0  0
    4.3860    2.5826    0.0000 H   0  0  0  0  0  0  0  0  0  0  0  0
    3.9875    1.8923    0.0000 H   0  0  0  0  0  0  0  0  0  0  0  0
    4.8101    0.4174    0.0000 H   0  0  0  0  0  0  0  0  0  0  0  0
    5.2087    1.1077    0.0000 H   0  0  0  0  0  0  0  0  0  0  0  0
    5.1350   -0.6900    0.0000 H   0  0  0  0  0  0  0  0  0  0  0  0
    5.1350   -2.3100    0.0000 H   0  0  0  0  0  0  0  0  0  0  0  0
    2.3291   -2.3100    0.0000 H   0  0  0  0  0  0  0  0  0  0  0  0
  1  2  1  0  0  0  0
  2  3  2  0  0  0  0
  2  4  1  0  0  0  0
  4  5  1  0  0  0  0
  5  6  1  0  0  0  0
  6  7  2  0  0  0  0
  6  8  1  0  0  0  0
  8  9  1  0  0  0  0
  9 10  2  0  0  0  0
 10 11  1  0  0  0  0
 11 12  2  0  0  0  0
 12 13  1  0  0  0  0
  8 13  2  0  0  0  0
 13 14  1  0  0  0  0
 11 15  1  0  0  0  0
  4 16  1  0  0  0  0
  4 17  1  0  0  0  0
  5 18  1  0  0  0  0
  5 19  1  0  0  0  0
  9 20  1  0  0  0  0
 10 21  1  0  0  0  0
 12 22  1  0  0  0  0
M  CHG  2   1  -1   2   1
M  END
> <UNIQUE_SMILES>
[O-][N+](=O)CCC(=O)C1=C(Cl)C=C(Cl)C=C1

> <USER_SUPPLIED_SMILES>
[O-][N+](=O)CCC(=O)c1ccc(cc1Cl)Cl

$$$$
C15H15NO2
APtclcactv12202015312D 0   0.00000     0.00000    40
 
 33 34  0  0  0  0  0  0  0  0999 V2000
    2.5369    2.8450    0.0000 O   0  0  0  0  0  0  0  0  0  0  0  0
    2.5369    1.8450    0.0000 N   0  0  0  0  0  0  0  0  0  0  0  0
    3.4030    1.3450    0.0000 C   0  0  0  0  0  0  0  0  0  0  0  0
    4.2690    1.8450    0.0000 O   0  0  0  0  0  0  0  0  0  0  0  0
    3.4030    0.3450    0.0000 C   0  0  0  0  0  0  0  0  0  0  0  0
    4.2690   -0.1550    0.0000 C   0  0  0  0  0  0  0  0  0  0  0  0
    4.2690   -1.1550    0.0000 C   0  0  0  0  0  0  0  0  0  0  0  0
    3.4030   -1.6550    0.0000 C   0  0  0  0  0  0  0  0  0  0  0  0
    3.4030   -2.6550    0.0000 C   0  0  0  0  0  0  0  0  0  0  0  0
    4.2690   -3.1550    0.0000 C   0  0  0  0  0  0  0  0  0  0  0  0
    5.1350   -2.6550    0.0000 C   0  0  0  0  0  0  0  0  0  0  0  0
    5.1350   -1.6550    0.0000 C   0  0  0  0  0  0  0  0  0  0  0  0
    5.1350    0.3450    0.0000 C   0  0  0  0  0  0  0  0  0  0  0  0
    6.0010   -0.1550    0.0000 C   0  0  0  0  0  0  0  0  0  0  0  0
    6.8671    0.3450    0.0000 C   0  0  0  0  0  0  0  0  0  0  0  0
    6.8671    1.3450    0.0000 C   0  0  0  0  0  0  0  0  0  0  0  0
    6.0010    1.8450    0.0000 C   0  0  0  0  0  0  0  0  0  0  0  0
    5.1350    1.3450    0.0000 C   0  0  0  0  0  0  0  0  0  0  0  0
    2.0000    3.1550    0.0000 H   0  0  0  0  0  0  0  0  0  0  0  0
    2.0000    1.5350    0.0000 H   0  0  0  0  0  0  0  0  0  0  0  0
    2.7924    0.4527    0.0000 H   0  0  0  0  0  0  0  0  0  0  0  0
    3.1909   -0.2376    0.0000 H   0  0  0  0  0  0  0  0  0  0  0  0
    4.2690    0.4650    0.0000 H   0  0  0  0  0  0  0  0  0  0  0  0
    2.8660   -1.3450    0.0000 H   0  0  0  0  0  0  0  0  0  0  0  0
    2.8660   -2.9650    0.0000 H   0  0  0  0  0  0  0  0  0  0  0  0
    4.2690   -3.7750    0.0000 H   0  0  0  0  0  0  0  0  0  0  0  0
    5.6719   -2.9650    0.0000 H   0  0  0  0  0  0  0  0  0  0  0  0
    5.6719   -1.3450    0.0000 H   0  0  0  0  0  0  0  0  0  0  0  0
    6.0010   -0.7750    0.0000 H   0  0  0  0  0  0  0  0  0  0  0  0
    7.4040    0.0350    0.0000 H   0  0  0  0  0  0  0  0  0  0  0  0
    7.4040    1.6550    0.0000 H   0  0  0  0  0  0  0  0  0  0  0  0
    6.0010    2.4650    0.0000 H   0  0  0  0  0  0  0  0  0  0  0  0
    4.5981    1.6550    0.0000 H   0  0  0  0  0  0  0  0  0  0  0  0
  1  2  1  0  0  0  0
  2  3  1  0  0  0  0
  3  4  2  0  0  0  0
  3  5  1  0  0  0  0
  5  6  1  0  0  0  0
  6  7  1  0  0  0  0
  7  8  1  0  0  0  0
  8  9  2  0  0  0  0
  9 10  1  0  0  0  0
 10 11  2  0  0  0  0
 11 12  1  0  0  0  0
  7 12  2  0  0  0  0
  6 13  1  0  0  0  0
 13 14  1  0  0  0  0
 14 15  2  0  0  0  0
 15 16  1  0  0  0  0
 16 17  2  0  0  0  0
 17 18  1  0  0  0  0
 13 18  2  0  0  0  0
  1 19  1  0  0  0  0
  2 20  1  0  0  0  0
  5 21  1  0  0  0  0
  5 22  1  0  0  0  0
  6 23  1  0  0  0  0
  8 24  1  0  0  0  0
  9 25  1  0  0  0  0
 10 26  1  0  0  0  0
 11 27  1  0  0  0  0
 12 28  1  0  0  0  0
 14 29  1  0  0  0  0
 15 30  1  0  0  0  0
 16 31  1  0  0  0  0
 17 32  1  0  0  0  0
 18 33  1  0  0  0  0
M  END
> <UNIQUE_SMILES>
ONC(=O)CC(C1=CC=CC=C1)C2=CC=CC=C2

> <USER_SUPPLIED_SMILES>
ONC(=O)CC(c1ccccc1)c1ccccc1

$$$$
C10H13NO2
APtclcactv12202015312D 0   0.00000     0.00000    41
 
 26 26  0  0  0  0  0  0  0  0999 V2000
    4.5981    2.8450    0.0000 O   0  0  0  0  0  0  0  0  0  0  0  0
    4.5981    1.8450    0.0000 N   0  0  0  0  0  0  0  0  0  0  0  0
    3.7321    1.3450    0.0000 C   0  0  0  0  0  0  0  0  0  0  0  0
    2.8660    1.8450    0.0000 O   0  0  0  0  0  0  0  0  0  0  0  0
    3.7321    0.3450    0.0000 C   0  0  0  0  0  0  0  0  0  0  0  0
    2.8660   -0.1550    0.0000 C   0  0  0  0  0  0  0  0  0  0  0  0
    2.8660   -1.1550    0.0000 C   0  0  0  0  0  0  0  0  0  0  0  0
    2.0000   -1.6550    0.0000 C   0  0  0  0  0  0  0  0  0  0  0  0
    2.0000   -2.6550    0.0000 C   0  0  0  0  0  0  0  0  0  0  0  0
    2.8660   -3.1550    0.0000 C   0  0  0  0  0  0  0  0  0  0  0  0
    3.7321   -2.6550    0.0000 C   0  0  0  0  0  0  0  0  0  0  0  0
    3.7321   -1.6550    0.0000 C   0  0  0  0  0  0  0  0  0  0  0  0
    4.5981   -0.1550    0.0000 C   0  0  0  0  0  0  0  0  0  0  0  0
    5.1350    3.1550    0.0000 H   0  0  0  0  0  0  0  0  0  0  0  0
    5.1350    1.5350    0.0000 H   0  0  0  0  0  0  0  0  0  0  0  0
    3.7321   -0.2750    0.0000 H   0  0  0  0  0  0  0  0  0  0  0  0
    2.6540    0.4276    0.0000 H   0  0  0  0  0  0  0  0  0  0  0  0
    2.2554   -0.2627    0.0000 H   0  0  0  0  0  0  0  0  0  0  0  0
    1.4631   -1.3450    0.0000 H   0  0  0  0  0  0  0  0  0  0  0  0
    1.4631   -2.9650    0.0000 H   0  0  0  0  0  0  0  0  0  0  0  0
    2.8660   -3.7750    0.0000 H   0  0  0  0  0  0  0  0  0  0  0  0
    4.2690   -2.9650    0.0000 H   0  0  0  0  0  0  0  0  0  0  0  0
    4.2690   -1.3450    0.0000 H   0  0  0  0  0  0  0  0  0  0  0  0
    4.2881   -0.6919    0.0000 H   0  0  0  0  0  0  0  0  0  0  0  0
    5.1350   -0.4650    0.0000 H   0  0  0  0  0  0  0  0  0  0  0  0
    4.9081    0.3819    0.0000 H   0  0  0  0  0  0  0  0  0  0  0  0
  1  2  1  0  0  0  0
  2  3  1  0  0  0  0
  3  4  2  0  0  0  0
  3  5  1  0  0  0  0
  5  6  1  0  0  0  0
  6  7  1  0  0  0  0
  7  8  1  0  0  0  0
  8  9  2  0  0  0  0
  9 10  1  0  0  0  0
 10 11  2  0  0  0  0
 11 12  1  0  0  0  0
  7 12  2  0  0  0  0
  5 13  1  0  0  0  0
  1 14  1  0  0  0  0
  2 15  1  0  0  0  0
  5 16  1  0  0  0  0
  6 17  1  0  0  0  0
  6 18  1  0  0  0  0
  8 19  1  0  0  0  0
  9 20  1  0  0  0  0
 10 21  1  0  0  0  0
 11 22  1  0  0  0  0
 12 23  1  0  0  0  0
 13 24  1  0  0  0  0
 13 25  1  0  0  0  0
 13 26  1  0  0  0  0
M  END
> <UNIQUE_SMILES>
CC(CC1=CC=CC=C1)C(=O)NO

> <USER_SUPPLIED_SMILES>
ONC(=O)C(Cc1ccccc1)C

$$$$
C10H13NO2
APtclcactv12202015312D 0   0.00000     0.00000    42
 
 26 26  0  0  1  0  0  0  0  0999 V2000
    2.0000    1.6900    0.0000 C   0  0  0  0  0  0  0  0  0  0  0  0
    2.0000    0.6900    0.0000 C   0  0  0  0  0  0  0  0  0  0  0  0
    2.8660    0.1900    0.0000 C   0  0  2  0  0  0  0  0  0  0  0  0
    2.8660    0.8100    0.0000 H   0  0  0  0  0  0  0  0  0  0  0  0
    2.8660   -0.8100    0.0000 C   0  0  0  0  0  0  0  0  0  0  0  0
    2.0000   -1.3100    0.0000 C   0  0  0  0  0  0  0  0  0  0  0  0
    2.0000   -2.3100    0.0000 C   0  0  0  0  0  0  0  0  0  0  0  0
    2.8660   -2.8100    0.0000 C   0  0  0  0  0  0  0  0  0  0  0  0
    3.7321   -2.3100    0.0000 C   0  0  0  0  0  0  0  0  0  0  0  0
    3.7321   -1.3100    0.0000 C   0  0  0  0  0  0  0  0  0  0  0  0
    3.7321    0.6900    0.0000 C   0  0  0  0  0  0  0  0  0  0  0  0
    4.5981    0.1900    0.0000 O   0  0  0  0  0  0  0  0  0  0  0  0
    3.7321    1.6900    0.0000 N   0  0  0  0  0  0  0  0  0  0  0  0
    4.5981    2.1900    0.0000 O   0  0  0  0  0  0  0  0  0  0  0  0
    2.6200    1.6900    0.0000 H   0  0  0  0  0  0  0  0  0  0  0  0
    2.0000    2.3100    0.0000 H   0  0  0  0  0  0  0  0  0  0  0  0
    1.3800    1.6900    0.0000 H   0  0  0  0  0  0  0  0  0  0  0  0
    1.3894    0.7977    0.0000 H   0  0  0  0  0  0  0  0  0  0  0  0
    1.7879    0.1074    0.0000 H   0  0  0  0  0  0  0  0  0  0  0  0
    1.4631   -1.0000    0.0000 H   0  0  0  0  0  0  0  0  0  0  0  0
    1.4631   -2.6200    0.0000 H   0  0  0  0  0  0  0  0  0  0  0  0
    2.8660   -3.4300    0.0000 H   0  0  0  0  0  0  0  0  0  0  0  0
    4.2690   -2.6200    0.0000 H   0  0  0  0  0  0  0  0  0  0  0  0
    4.2690   -1.0000    0.0000 H   0  0  0  0  0  0  0  0  0  0  0  0
    3.1951    2.0000    0.0000 H   0  0  0  0  0  0  0  0  0  0  0  0
    4.5981    2.8100    0.0000 H   0  0  0  0  0  0  0  0  0  0  0  0
  1  2  1  0  0  0  0
  3  2  1  1  0  0  0
  3  4  1  0  0  0  0
  3  5  1  0  0  0  0
  5  6  1  0  0  0  0
  6  7  2  0  0  0  0
  7  8  1  0  0  0  0
  8  9  2  0  0  0  0
  9 10  1  0  0  0  0
  5 10  2  0  0  0  0
  3 11  1  0  0  0  0
 11 12  2  0  0  0  0
 11 13  1  0  0  0  0
 13 14  1  0  0  0  0
  1 15  1  0  0  0  0
  1 16  1  0  0  0  0
  1 17  1  0  0  0  0
  2 18  1  0  0  0  0
  2 19  1  0  0  0  0
  6 20  1  0  0  0  0
  7 21  1  0  0  0  0
  8 22  1  0  0  0  0
  9 23  1  0  0  0  0
 10 24  1  0  0  0  0
 13 25  1  0  0  0  0
 14 26  1  0  0  0  0
M  END
> <UNIQUE_SMILES>
CC[C@@H](C(=O)NO)C1=CC=CC=C1

> <USER_SUPPLIED_SMILES>
CC[C@H](c1ccccc1)C(=O)NO

$$$$
C10H13NO2
APtclcactv12202015312D 0   0.00000     0.00000    43
 
 26 26  0  0  0  0  0  0  0  0999 V2000
    2.0000    1.6900    0.0000 C   0  0  0  0  0  0  0  0  0  0  0  0
    2.0000    0.6900    0.0000 C   0  0  0  0  0  0  0  0  0  0  0  0
    2.8660    0.1900    0.0000 C   0  0  0  0  0  0  0  0  0  0  0  0
    2.8660   -0.8100    0.0000 C   0  0  0  0  0  0  0  0  0  0  0  0
    2.0000   -1.3100    0.0000 C   0  0  0  0  0  0  0  0  0  0  0  0
    2.0000   -2.3100    0.0000 C   0  0  0  0  0  0  0  0  0  0  0  0
    2.8660   -2.8100    0.0000 C   0  0  0  0  0  0  0  0  0  0  0  0
    3.7321   -2.3100    0.0000 C   0  0  0  0  0  0  0  0  0  0  0  0
    3.7321   -1.3100    0.0000 C   0  0  0  0  0  0  0  0  0  0  0  0
    3.7321    0.6900    0.0000 C   0  0  0  0  0  0  0  0  0  0  0  0
    4.5981    0.1900    0.0000 O   0  0  0  0  0  0  0  0  0  0  0  0
    3.7321    1.6900    0.0000 N   0  0  0  0  0  0  0  0  0  0  0  0
    4.5981    2.1900    0.0000 O   0  0  0  0  0  0  0  0  0  0  0  0
    2.6200    1.6900    0.0000 H   0  0  0  0  0  0  0  0  0  0  0  0
    2.0000    2.3100    0.0000 H   0  0  0  0  0  0  0  0  0  0  0  0
    1.3800    1.6900    0.0000 H   0  0  0  0  0  0  0  0  0  0  0  0
    1.3894    0.7977    0.0000 H   0  0  0  0  0  0  0  0  0  0  0  0
    1.7879    0.1074    0.0000 H   0  0  0  0  0  0  0  0  0  0  0  0
    2.8660    0.8100    0.0000 H   0  0  0  0  0  0  0  0  0  0  0  0
    1.4631   -1.0000    0.0000 H   0  0  0  0  0  0  0  0  0  0  0  0
    1.4631   -2.6200    0.0000 H   0  0  0  0  0  0  0  0  0  0  0  0
    2.8660   -3.4300    0.0000 H   0  0  0  0  0  0  0  0  0  0  0  0
    4.2690   -2.6200    0.0000 H   0  0  0  0  0  0  0  0  0  0  0  0
    4.2690   -1.0000    0.0000 H   0  0  0  0  0  0  0  0  0  0  0  0
    3.1951    2.0000    0.0000 H   0  0  0  0  0  0  0  0  0  0  0  0
    4.5981    2.8100    0.0000 H   0  0  0  0  0  0  0  0  0  0  0  0
  1  2  1  0  0  0  0
  2  3  1  0  0  0  0
  3  4  1  0  0  0  0
  4  5  1  0  0  0  0
  5  6  2  0  0  0  0
  6  7  1  0  0  0  0
  7  8  2  0  0  0  0
  8  9  1  0  0  0  0
  4  9  2  0  0  0  0
  3 10  1  0  0  0  0
 10 11  2  0  0  0  0
 10 12  1  0  0  0  0
 12 13  1  0  0  0  0
  1 14  1  0  0  0  0
  1 15  1  0  0  0  0
  1 16  1  0  0  0  0
  2 17  1  0  0  0  0
  2 18  1  0  0  0  0
  3 19  1  0  0  0  0
  5 20  1  0  0  0  0
  6 21  1  0  0  0  0
  7 22  1  0  0  0  0
  8 23  1  0  0  0  0
  9 24  1  0  0  0  0
 12 25  1  0  0  0  0
 13 26  1  0  0  0  0
M  END
> <UNIQUE_SMILES>
CCC(C(=O)NO)C1=CC=CC=C1

> <USER_SUPPLIED_SMILES>
CCC(c1ccccc1)C(=O)NO

$$$$
C12H15NO3
APtclcactv12202015312D 0   0.00000     0.00000    44
 
 31 31  0  0  1  0  0  0  0  0999 V2000
    6.3301    2.5000    0.0000 O   0  0  0  0  0  0  0  0  0  0  0  0
    6.3301    1.5000    0.0000 C   0  0  0  0  0  0  0  0  0  0  0  0
    5.4641    1.0000    0.0000 C   0  0  0  0  0  0  0  0  0  0  0  0
    4.5981    0.5000    0.0000 C   0  0  1  0  0  0  0  0  0  0  0  0
    4.5981    1.1200    0.0000 H   0  0  0  0  0  0  0  0  0  0  0  0
    4.5981   -0.5000    0.0000 C   0  0  0  0  0  0  0  0  0  0  0  0
    3.7321   -1.0000    0.0000 C   0  0  0  0  0  0  0  0  0  0  0  0
    3.7321   -2.0000    0.0000 C   0  0  0  0  0  0  0  0  0  0  0  0
    4.5981   -2.5000    0.0000 C   0  0  0  0  0  0  0  0  0  0  0  0
    5.4641   -2.0000    0.0000 C   0  0  0  0  0  0  0  0  0  0  0  0
    5.4641   -1.0000    0.0000 C   0  0  0  0  0  0  0  0  0  0  0  0
    3.7321    1.0000    0.0000 C   0  0  0  0  0  0  0  0  0  0  0  0
    2.8660    0.5000    0.0000 N   0  3  0  0  0  0  0  0  0  0  0  0
    2.8660   -0.5000    0.0000 O   0  0  0  0  0  0  0  0  0  0  0  0
    2.0000    1.0000    0.0000 O   0  5  0  0  0  0  0  0  0  0  0  0
    4.9641    1.8660    0.0000 C   0  0  0  0  0  0  0  0  0  0  0  0
    5.9641    0.1340    0.0000 C   0  0  0  0  0  0  0  0  0  0  0  0
    6.8671    1.1900    0.0000 H   0  0  0  0  0  0  0  0  0  0  0  0
    3.1951   -0.6900    0.0000 H   0  0  0  0  0  0  0  0  0  0  0  0
    3.1951   -2.3100    0.0000 H   0  0  0  0  0  0  0  0  0  0  0  0
    4.5981   -3.1200    0.0000 H   0  0  0  0  0  0  0  0  0  0  0  0
    6.0010   -2.3100    0.0000 H   0  0  0  0  0  0  0  0  0  0  0  0
    6.0010   -0.6900    0.0000 H   0  0  0  0  0  0  0  0  0  0  0  0
    4.1306    1.4749    0.0000 H   0  0  0  0  0  0  0  0  0  0  0  0
    3.3335    1.4749    0.0000 H   0  0  0  0  0  0  0  0  0  0  0  0
    5.5010    2.1760    0.0000 H   0  0  0  0  0  0  0  0  0  0  0  0
    4.6541    2.4030    0.0000 H   0  0  0  0  0  0  0  0  0  0  0  0
    4.4272    1.5560    0.0000 H   0  0  0  0  0  0  0  0  0  0  0  0
    5.4272   -0.1760    0.0000 H   0  0  0  0  0  0  0  0  0  0  0  0
    6.2741   -0.4030    0.0000 H   0  0  0  0  0  0  0  0  0  0  0  0
    6.5010    0.4440    0.0000 H   0  0  0  0  0  0  0  0  0  0  0  0
  1  2  2  0  0  0  0
  2  3  1  0  0  0  0
  3  4  1  0  0  0  0
  4  5  1  0  0  0  0
  4  6  1  0  0  0  0
  6  7  1  0  0  0  0
  7  8  2  0  0  0  0
  8  9  1  0  0  0  0
  9 10  2  0  0  0  0
 10 11  1  0  0  0  0
  6 11  2  0  0  0  0
  4 12  1  1  0  0  0
 12 13  1  0  0  0  0
 13 14  2  0  0  0  0
 13 15  1  0  0  0  0
  3 16  1  0  0  0  0
  3 17  1  0  0  0  0
  2 18  1  0  0  0  0
  7 19  1  0  0  0  0
  8 20  1  0  0  0  0
  9 21  1  0  0  0  0
 10 22  1  0  0  0  0
 11 23  1  0  0  0  0
 12 24  1  0  0  0  0
 12 25  1  0  0  0  0
 16 26  1  0  0  0  0
 16 27  1  0  0  0  0
 16 28  1  0  0  0  0
 17 29  1  0  0  0  0
 17 30  1  0  0  0  0
 17 31  1  0  0  0  0
M  CHG  2  13   1  15  -1
M  END
> <UNIQUE_SMILES>
CC(C)(C=O)[C@H](C[N+]([O-])=O)C1=CC=CC=C1

> <USER_SUPPLIED_SMILES>
O=CC([C@@H](c1ccccc1)C[N+](=O)[O-])(C)C

$$$$
C12H15NO3
APtclcactv12202015312D 0   0.00000     0.00000    45
 
 31 31  0  0  1  0  0  0  0  0999 V2000
    6.3301    2.5000    0.0000 O   0  0  0  0  0  0  0  0  0  0  0  0
    6.3301    1.5000    0.0000 C   0  0  0  0  0  0  0  0  0  0  0  0
    5.4641    1.0000    0.0000 C   0  0  0  0  0  0  0  0  0  0  0  0
    4.5981    0.5000    0.0000 C   0  0  2  0  0  0  0  0  0  0  0  0
    4.5981    1.1200    0.0000 H   0  0  0  0  0  0  0  0  0  0  0  0
    4.5981   -0.5000    0.0000 C   0  0  0  0  0  0  0  0  0  0  0  0
    3.7321   -1.0000    0.0000 C   0  0  0  0  0  0  0  0  0  0  0  0
    3.7321   -2.0000    0.0000 C   0  0  0  0  0  0  0  0  0  0  0  0
    4.5981   -2.5000    0.0000 C   0  0  0  0  0  0  0  0  0  0  0  0
    5.4641   -2.0000    0.0000 C   0  0  0  0  0  0  0  0  0  0  0  0
    5.4641   -1.0000    0.0000 C   0  0  0  0  0  0  0  0  0  0  0  0
    3.7321    1.0000    0.0000 C   0  0  0  0  0  0  0  0  0  0  0  0
    2.8660    0.5000    0.0000 N   0  3  0  0  0  0  0  0  0  0  0  0
    2.8660   -0.5000    0.0000 O   0  0  0  0  0  0  0  0  0  0  0  0
    2.0000    1.0000    0.0000 O   0  5  0  0  0  0  0  0  0  0  0  0
    4.9641    1.8660    0.0000 C   0  0  0  0  0  0  0  0  0  0  0  0
    5.9641    0.1340    0.0000 C   0  0  0  0  0  0  0  0  0  0  0  0
    6.8671    1.1900    0.0000 H   0  0  0  0  0  0  0  0  0  0  0  0
    3.1951   -0.6900    0.0000 H   0  0  0  0  0  0  0  0  0  0  0  0
    3.1951   -2.3100    0.0000 H   0  0  0  0  0  0  0  0  0  0  0  0
    4.5981   -3.1200    0.0000 H   0  0  0  0  0  0  0  0  0  0  0  0
    6.0010   -2.3100    0.0000 H   0  0  0  0  0  0  0  0  0  0  0  0
    6.0010   -0.6900    0.0000 H   0  0  0  0  0  0  0  0  0  0  0  0
    4.1306    1.4749    0.0000 H   0  0  0  0  0  0  0  0  0  0  0  0
    3.3335    1.4749    0.0000 H   0  0  0  0  0  0  0  0  0  0  0  0
    5.5010    2.1760    0.0000 H   0  0  0  0  0  0  0  0  0  0  0  0
    4.6541    2.4030    0.0000 H   0  0  0  0  0  0  0  0  0  0  0  0
    4.4272    1.5560    0.0000 H   0  0  0  0  0  0  0  0  0  0  0  0
    5.4272   -0.1760    0.0000 H   0  0  0  0  0  0  0  0  0  0  0  0
    6.2741   -0.4030    0.0000 H   0  0  0  0  0  0  0  0  0  0  0  0
    6.5010    0.4440    0.0000 H   0  0  0  0  0  0  0  0  0  0  0  0
  1  2  2  0  0  0  0
  2  3  1  0  0  0  0
  3  4  1  0  0  0  0
  4  5  1  0  0  0  0
  4  6  1  0  0  0  0
  6  7  1  0  0  0  0
  7  8  2  0  0  0  0
  8  9  1  0  0  0  0
  9 10  2  0  0  0  0
 10 11  1  0  0  0  0
  6 11  2  0  0  0  0
  4 12  1  6  0  0  0
 12 13  1  0  0  0  0
 13 14  2  0  0  0  0
 13 15  1  0  0  0  0
  3 16  1  0  0  0  0
  3 17  1  0  0  0  0
  2 18  1  0  0  0  0
  7 19  1  0  0  0  0
  8 20  1  0  0  0  0
  9 21  1  0  0  0  0
 10 22  1  0  0  0  0
 11 23  1  0  0  0  0
 12 24  1  0  0  0  0
 12 25  1  0  0  0  0
 16 26  1  0  0  0  0
 16 27  1  0  0  0  0
 16 28  1  0  0  0  0
 17 29  1  0  0  0  0
 17 30  1  0  0  0  0
 17 31  1  0  0  0  0
M  CHG  2  13   1  15  -1
M  END
> <UNIQUE_SMILES>
CC(C)(C=O)[C@@H](C[N+]([O-])=O)C1=CC=CC=C1

> <USER_SUPPLIED_SMILES>
O=CC([C@H](c1ccccc1)C[N+](=O)[O-])(C)C

$$$$
C17H23NO3
APtclcactv12202015312D 0   0.00000     0.00000    46
 
 44 45  0  0  1  0  0  0  0  0999 V2000
    6.3301    0.5000    0.0000 O   0  0  0  0  0  0  0  0  0  0  0  0
    5.4641    1.0000    0.0000 C   0  0  0  0  0  0  0  0  0  0  0  0
    5.4641    2.0000    0.0000 C   0  0  0  0  0  0  0  0  0  0  0  0
    6.3301    2.5000    0.0000 C   0  0  0  0  0  0  0  0  0  0  0  0
    6.3301    3.5000    0.0000 C   0  0  0  0  0  0  0  0  0  0  0  0
    5.4641    4.0000    0.0000 C   0  0  0  0  0  0  0  0  0  0  0  0
    4.5981    3.5000    0.0000 C   0  0  0  0  0  0  0  0  0  0  0  0
    4.5981    2.5000    0.0000 C   0  0  0  0  0  0  0  0  0  0  0  0
    4.5981    0.5000    0.0000 N   0  0  0  0  0  0  0  0  0  0  0  0
    4.5981   -0.5000    0.0000 C   0  0  2  0  0  0  0  0  0  0  0  0
    5.1350   -0.1900    0.0000 H   0  0  0  0  0  0  0  0  0  0  0  0
    5.4641   -1.0000    0.0000 C   0  0  0  0  0  0  0  0  0  0  0  0
    5.4641   -2.0000    0.0000 O   0  0  0  0  0  0  0  0  0  0  0  0
    6.3301   -0.5000    0.0000 O   0  0  0  0  0  0  0  0  0  0  0  0
    3.7321   -1.0000    0.0000 C   0  0  0  0  0  0  0  0  0  0  0  0
    3.7321   -2.0000    0.0000 C   0  0  0  0  0  0  0  0  0  0  0  0
    4.5981   -2.5000    0.0000 C   0  0  0  0  0  0  0  0  0  0  0  0
    4.5981   -3.5000    0.0000 C   0  0  0  0  0  0  0  0  0  0  0  0
    3.7321   -4.0000    0.0000 C   0  0  0  0  0  0  0  0  0  0  0  0
    2.8660   -3.5000    0.0000 C   0  0  0  0  0  0  0  0  0  0  0  0
    2.8660   -2.5000    0.0000 C   0  0  0  0  0  0  0  0  0  0  0  0
    2.0000   -2.0000    0.0000 C   0  0  0  0  0  0  0  0  0  0  0  0
    6.0010    1.6900    0.0000 H   0  0  0  0  0  0  0  0  0  0  0  0
    6.5422    1.9174    0.0000 H   0  0  0  0  0  0  0  0  0  0  0  0
    6.9407    2.6077    0.0000 H   0  0  0  0  0  0  0  0  0  0  0  0
    6.9407    3.3923    0.0000 H   0  0  0  0  0  0  0  0  0  0  0  0
    6.5422    4.0826    0.0000 H   0  0  0  0  0  0  0  0  0  0  0  0
    5.8626    4.4749    0.0000 H   0  0  0  0  0  0  0  0  0  0  0  0
    5.0656    4.4749    0.0000 H   0  0  0  0  0  0  0  0  0  0  0  0
    4.3860    4.0826    0.0000 H   0  0  0  0  0  0  0  0  0  0  0  0
    3.9875    3.3923    0.0000 H   0  0  0  0  0  0  0  0  0  0  0  0
    3.9875    2.6077    0.0000 H   0  0  0  0  0  0  0  0  0  0  0  0
    4.3860    1.9174    0.0000 H   0  0  0  0  0  0  0  0  0  0  0  0
    4.0611    0.8100    0.0000 H   0  0  0  0  0  0  0  0  0  0  0  0
    6.8671   -0.8100    0.0000 H   0  0  0  0  0  0  0  0  0  0  0  0
    3.5200   -0.4174    0.0000 H   0  0  0  0  0  0  0  0  0  0  0  0
    3.1215   -1.1077    0.0000 H   0  0  0  0  0  0  0  0  0  0  0  0
    5.1350   -2.1900    0.0000 H   0  0  0  0  0  0  0  0  0  0  0  0
    5.1350   -3.8100    0.0000 H   0  0  0  0  0  0  0  0  0  0  0  0
    3.7321   -4.6200    0.0000 H   0  0  0  0  0  0  0  0  0  0  0  0
    2.3291   -3.8100    0.0000 H   0  0  0  0  0  0  0  0  0  0  0  0
    2.3100   -1.4631    0.0000 H   0  0  0  0  0  0  0  0  0  0  0  0
    1.4631   -1.6900    0.0000 H   0  0  0  0  0  0  0  0  0  0  0  0
    1.6900   -2.5369    0.0000 H   0  0  0  0  0  0  0  0  0  0  0  0
  1  2  2  0  0  0  0
  2  3  1  0  0  0  0
  3  4  1  0  0  0  0
  4  5  1  0  0  0  0
  5  6  1  0  0  0  0
  6  7  1  0  0  0  0
  7  8  1  0  0  0  0
  3  8  1  0  0  0  0
  2  9  1  0  0  0  0
 10  9  1  6  0  0  0
 10 11  1  0  0  0  0
 10 12  1  0  0  0  0
 12 13  2  0  0  0  0
 12 14  1  0  0  0  0
 10 15  1  0  0  0  0
 15 16  1  0  0  0  0
 16 17  1  0  0  0  0
 17 18  2  0  0  0  0
 18 19  1  0  0  0  0
 19 20  2  0  0  0  0
 20 21  1  0  0  0  0
 16 21  2  0  0  0  0
 21 22  1  0  0  0  0
  3 23  1  0  0  0  0
  4 24  1  0  0  0  0
  4 25  1  0  0  0  0
  5 26  1  0  0  0  0
  5 27  1  0  0  0  0
  6 28  1  0  0  0  0
  6 29  1  0  0  0  0
  7 30  1  0  0  0  0
  7 31  1  0  0  0  0
  8 32  1  0  0  0  0
  8 33  1  0  0  0  0
  9 34  1  0  0  0  0
 14 35  1  0  0  0  0
 15 36  1  0  0  0  0
 15 37  1  0  0  0  0
 17 38  1  0  0  0  0
 18 39  1  0  0  0  0
 19 40  1  0  0  0  0
 20 41  1  0  0  0  0
 22 42  1  0  0  0  0
 22 43  1  0  0  0  0
 22 44  1  0  0  0  0
M  END
> <UNIQUE_SMILES>
CC1=C(C[C@H](NC(=O)C2CCCCC2)C(O)=O)C=CC=C1

> <USER_SUPPLIED_SMILES>
O=C(C1CCCCC1)N[C@H](C(=O)O)Cc1ccccc1C

$$$$
C17H23NO3
APtclcactv12202015312D 0   0.00000     0.00000    47
 
 44 45  0  0  0  0  0  0  0  0999 V2000
    6.3301    0.5000    0.0000 O   0  0  0  0  0  0  0  0  0  0  0  0
    5.4641    1.0000    0.0000 C   0  0  0  0  0  0  0  0  0  0  0  0
    5.4641    2.0000    0.0000 C   0  0  0  0  0  0  0  0  0  0  0  0
    6.3301    2.5000    0.0000 C   0  0  0  0  0  0  0  0  0  0  0  0
    6.3301    3.5000    0.0000 C   0  0  0  0  0  0  0  0  0  0  0  0
    5.4641    4.0000    0.0000 C   0  0  0  0  0  0  0  0  0  0  0  0
    4.5981    3.5000    0.0000 C   0  0  0  0  0  0  0  0  0  0  0  0
    4.5981    2.5000    0.0000 C   0  0  0  0  0  0  0  0  0  0  0  0
    4.5981    0.5000    0.0000 N   0  0  0  0  0  0  0  0  0  0  0  0
    4.5981   -0.5000    0.0000 C   0  0  0  0  0  0  0  0  0  0  0  0
    5.4641   -1.0000    0.0000 C   0  0  0  0  0  0  0  0  0  0  0  0
    5.4641   -2.0000    0.0000 O   0  0  0  0  0  0  0  0  0  0  0  0
    6.3301   -0.5000    0.0000 O   0  0  0  0  0  0  0  0  0  0  0  0
    3.7321   -1.0000    0.0000 C   0  0  0  0  0  0  0  0  0  0  0  0
    3.7321   -2.0000    0.0000 C   0  0  0  0  0  0  0  0  0  0  0  0
    4.5981   -2.5000    0.0000 C   0  0  0  0  0  0  0  0  0  0  0  0
    4.5981   -3.5000    0.0000 C   0  0  0  0  0  0  0  0  0  0  0  0
    3.7321   -4.0000    0.0000 C   0  0  0  0  0  0  0  0  0  0  0  0
    2.8660   -3.5000    0.0000 C   0  0  0  0  0  0  0  0  0  0  0  0
    2.8660   -2.5000    0.0000 C   0  0  0  0  0  0  0  0  0  0  0  0
    2.0000   -2.0000    0.0000 C   0  0  0  0  0  0  0  0  0  0  0  0
    6.0010    1.6900    0.0000 H   0  0  0  0  0  0  0  0  0  0  0  0
    6.5422    1.9174    0.0000 H   0  0  0  0  0  0  0  0  0  0  0  0
    6.9407    2.6077    0.0000 H   0  0  0  0  0  0  0  0  0  0  0  0
    6.9407    3.3923    0.0000 H   0  0  0  0  0  0  0  0  0  0  0  0
    6.5422    4.0826    0.0000 H   0  0  0  0  0  0  0  0  0  0  0  0
    5.8626    4.4749    0.0000 H   0  0  0  0  0  0  0  0  0  0  0  0
    5.0656    4.4749    0.0000 H   0  0  0  0  0  0  0  0  0  0  0  0
    4.3860    4.0826    0.0000 H   0  0  0  0  0  0  0  0  0  0  0  0
    3.9875    3.3923    0.0000 H   0  0  0  0  0  0  0  0  0  0  0  0
    3.9875    2.6077    0.0000 H   0  0  0  0  0  0  0  0  0  0  0  0
    4.3860    1.9174    0.0000 H   0  0  0  0  0  0  0  0  0  0  0  0
    4.0611    0.8100    0.0000 H   0  0  0  0  0  0  0  0  0  0  0  0
    5.1350   -0.1900    0.0000 H   0  0  0  0  0  0  0  0  0  0  0  0
    6.8671   -0.8100    0.0000 H   0  0  0  0  0  0  0  0  0  0  0  0
    3.5200   -0.4174    0.0000 H   0  0  0  0  0  0  0  0  0  0  0  0
    3.1215   -1.1077    0.0000 H   0  0  0  0  0  0  0  0  0  0  0  0
    5.1350   -2.1900    0.0000 H   0  0  0  0  0  0  0  0  0  0  0  0
    5.1350   -3.8100    0.0000 H   0  0  0  0  0  0  0  0  0  0  0  0
    3.7321   -4.6200    0.0000 H   0  0  0  0  0  0  0  0  0  0  0  0
    2.3291   -3.8100    0.0000 H   0  0  0  0  0  0  0  0  0  0  0  0
    2.3100   -1.4631    0.0000 H   0  0  0  0  0  0  0  0  0  0  0  0
    1.4631   -1.6900    0.0000 H   0  0  0  0  0  0  0  0  0  0  0  0
    1.6900   -2.5369    0.0000 H   0  0  0  0  0  0  0  0  0  0  0  0
  1  2  2  0  0  0  0
  2  3  1  0  0  0  0
  3  4  1  0  0  0  0
  4  5  1  0  0  0  0
  5  6  1  0  0  0  0
  6  7  1  0  0  0  0
  7  8  1  0  0  0  0
  3  8  1  0  0  0  0
  2  9  1  0  0  0  0
  9 10  1  0  0  0  0
 10 11  1  0  0  0  0
 11 12  2  0  0  0  0
 11 13  1  0  0  0  0
 10 14  1  0  0  0  0
 14 15  1  0  0  0  0
 15 16  1  0  0  0  0
 16 17  2  0  0  0  0
 17 18  1  0  0  0  0
 18 19  2  0  0  0  0
 19 20  1  0  0  0  0
 15 20  2  0  0  0  0
 20 21  1  0  0  0  0
  3 22  1  0  0  0  0
  4 23  1  0  0  0  0
  4 24  1  0  0  0  0
  5 25  1  0  0  0  0
  5 26  1  0  0  0  0
  6 27  1  0  0  0  0
  6 28  1  0  0  0  0
  7 29  1  0  0  0  0
  7 30  1  0  0  0  0
  8 31  1  0  0  0  0
  8 32  1  0  0  0  0
  9 33  1  0  0  0  0
 10 34  1  0  0  0  0
 13 35  1  0  0  0  0
 14 36  1  0  0  0  0
 14 37  1  0  0  0  0
 16 38  1  0  0  0  0
 17 39  1  0  0  0  0
 18 40  1  0  0  0  0
 19 41  1  0  0  0  0
 21 42  1  0  0  0  0
 21 43  1  0  0  0  0
 21 44  1  0  0  0  0
M  END
> <UNIQUE_SMILES>
CC1=C(CC(NC(=O)C2CCCCC2)C(O)=O)C=CC=C1

> <USER_SUPPLIED_SMILES>
O=C(C1CCCCC1)NC(C(=O)O)Cc1ccccc1C

$$$$
C18H25NO3
APtclcactv12202015312D 0   0.00000     0.00000    48
 
 47 48  0  0  1  0  0  0  0  0999 V2000
    5.4641   -4.0000    0.0000 C   0  0  0  0  0  0  0  0  0  0  0  0
    4.5981   -3.5000    0.0000 C   0  0  0  0  0  0  0  0  0  0  0  0
    3.7321   -4.0000    0.0000 C   0  0  0  0  0  0  0  0  0  0  0  0
    2.8660   -3.5000    0.0000 C   0  0  0  0  0  0  0  0  0  0  0  0
    2.8660   -2.5000    0.0000 C   0  0  0  0  0  0  0  0  0  0  0  0
    3.7321   -2.0000    0.0000 C   0  0  0  0  0  0  0  0  0  0  0  0
    4.5981   -2.5000    0.0000 C   0  0  0  0  0  0  0  0  0  0  0  0
    3.7321   -1.0000    0.0000 C   0  0  0  0  0  0  0  0  0  0  0  0
    4.5981   -0.5000    0.0000 C   0  0  1  0  0  0  0  0  0  0  0  0
    5.1350   -0.1900    0.0000 H   0  0  0  0  0  0  0  0  0  0  0  0
    5.4641   -1.0000    0.0000 C   0  0  0  0  0  0  0  0  0  0  0  0
    5.4641   -2.0000    0.0000 O   0  0  0  0  0  0  0  0  0  0  0  0
    6.3301   -0.5000    0.0000 O   0  0  0  0  0  0  0  0  0  0  0  0
    4.5981    0.5000    0.0000 N   0  0  0  0  0  0  0  0  0  0  0  0
    5.4641    1.0000    0.0000 C   0  0  0  0  0  0  0  0  0  0  0  0
    6.3301    0.5000    0.0000 O   0  0  0  0  0  0  0  0  0  0  0  0
    5.4641    2.0000    0.0000 C   0  0  0  0  0  0  0  0  0  0  0  0
    6.3301    2.5000    0.0000 C   0  0  0  0  0  0  0  0  0  0  0  0
    6.3301    3.5000    0.0000 C   0  0  0  0  0  0  0  0  0  0  0  0
    5.4641    4.0000    0.0000 C   0  0  0  0  0  0  0  0  0  0  0  0
    4.5981    3.5000    0.0000 C   0  0  0  0  0  0  0  0  0  0  0  0
    4.5981    2.5000    0.0000 C   0  0  0  0  0  0  0  0  0  0  0  0
    2.0000   -2.0000    0.0000 C   0  0  0  0  0  0  0  0  0  0  0  0
    5.1541   -4.5369    0.0000 H   0  0  0  0  0  0  0  0  0  0  0  0
    6.0010   -4.3100    0.0000 H   0  0  0  0  0  0  0  0  0  0  0  0
    5.7741   -3.4631    0.0000 H   0  0  0  0  0  0  0  0  0  0  0  0
    3.7321   -4.6200    0.0000 H   0  0  0  0  0  0  0  0  0  0  0  0
    2.3291   -3.8100    0.0000 H   0  0  0  0  0  0  0  0  0  0  0  0
    5.1350   -2.1900    0.0000 H   0  0  0  0  0  0  0  0  0  0  0  0
    3.5200   -0.4174    0.0000 H   0  0  0  0  0  0  0  0  0  0  0  0
    3.1215   -1.1077    0.0000 H   0  0  0  0  0  0  0  0  0  0  0  0
    6.8671   -0.8100    0.0000 H   0  0  0  0  0  0  0  0  0  0  0  0
    4.0611    0.8100    0.0000 H   0  0  0  0  0  0  0  0  0  0  0  0
    6.0010    1.6900    0.0000 H   0  0  0  0  0  0  0  0  0  0  0  0
    6.5422    1.9174    0.0000 H   0  0  0  0  0  0  0  0  0  0  0  0
    6.9407    2.6077    0.0000 H   0  0  0  0  0  0  0  0  0  0  0  0
    6.9407    3.3923    0.0000 H   0  0  0  0  0  0  0  0  0  0  0  0
    6.5422    4.0826    0.0000 H   0  0  0  0  0  0  0  0  0  0  0  0
    5.8626    4.4749    0.0000 H   0  0  0  0  0  0  0  0  0  0  0  0
    5.0656    4.4749    0.0000 H   0  0  0  0  0  0  0  0  0  0  0  0
    4.3860    4.0826    0.0000 H   0  0  0  0  0  0  0  0  0  0  0  0
    3.9875    3.3923    0.0000 H   0  0  0  0  0  0  0  0  0  0  0  0
    3.9875    2.6077    0.0000 H   0  0  0  0  0  0  0  0  0  0  0  0
    4.3860    1.9174    0.0000 H   0  0  0  0  0  0  0  0  0  0  0  0
    2.3100   -1.4631    0.0000 H   0  0  0  0  0  0  0  0  0  0  0  0
    1.4631   -1.6900    0.0000 H   0  0  0  0  0  0  0  0  0  0  0  0
    1.6900   -2.5369    0.0000 H   0  0  0  0  0  0  0  0  0  0  0  0
  1  2  1  0  0  0  0
  2  3  1  0  0  0  0
  3  4  2  0  0  0  0
  4  5  1  0  0  0  0
  5  6  2  0  0  0  0
  6  7  1  0  0  0  0
  2  7  2  0  0  0  0
  6  8  1  0  0  0  0
  8  9  1  0  0  0  0
  9 10  1  0  0  0  0
  9 11  1  0  0  0  0
 11 12  2  0  0  0  0
 11 13  1  0  0  0  0
  9 14  1  6  0  0  0
 14 15  1  0  0  0  0
 15 16  2  0  0  0  0
 15 17  1  0  0  0  0
 17 18  1  0  0  0  0
 18 19  1  0  0  0  0
 19 20  1  0  0  0  0
 20 21  1  0  0  0  0
 21 22  1  0  0  0  0
 17 22  1  0  0  0  0
  5 23  1  0  0  0  0
  1 24  1  0  0  0  0
  1 25  1  0  0  0  0
  1 26  1  0  0  0  0
  3 27  1  0  0  0  0
  4 28  1  0  0  0  0
  7 29  1  0  0  0  0
  8 30  1  0  0  0  0
  8 31  1  0  0  0  0
 13 32  1  0  0  0  0
 14 33  1  0  0  0  0
 17 34  1  0  0  0  0
 18 35  1  0  0  0  0
 18 36  1  0  0  0  0
 19 37  1  0  0  0  0
 19 38  1  0  0  0  0
 20 39  1  0  0  0  0
 20 40  1  0  0  0  0
 21 41  1  0  0  0  0
 21 42  1  0  0  0  0
 22 43  1  0  0  0  0
 22 44  1  0  0  0  0
 23 45  1  0  0  0  0
 23 46  1  0  0  0  0
 23 47  1  0  0  0  0
M  END
> <UNIQUE_SMILES>
CC1=CC(=C(C)C=C1)C[C@H](NC(=O)C2CCCCC2)C(O)=O

> <USER_SUPPLIED_SMILES>
Cc1ccc(c(c1)C[C@@H](C(=O)O)NC(=O)C1CCCCC1)C

$$$$
C16H21NO3
APtclcactv12202015312D 0   0.00000     0.00000    49
 
 41 42  0  0  1  0  0  0  0  0999 V2000
    6.3301   -0.2694    0.0000 O   0  0  0  0  0  0  0  0  0  0  0  0
    5.4641   -0.7694    0.0000 C   0  0  0  0  0  0  0  0  0  0  0  0
    5.4641   -1.7694    0.0000 O   0  0  0  0  0  0  0  0  0  0  0  0
    4.5981   -0.2694    0.0000 C   0  0  2  0  0  0  0  0  0  0  0  0
    5.1350    0.0406    0.0000 H   0  0  0  0  0  0  0  0  0  0  0  0
    3.7321   -0.7694    0.0000 C   0  0  0  0  0  0  0  0  0  0  0  0
    3.7321   -1.7694    0.0000 C   0  0  0  0  0  0  0  0  0  0  0  0
    4.5981   -2.2694    0.0000 C   0  0  0  0  0  0  0  0  0  0  0  0
    4.5981   -3.2694    0.0000 C   0  0  0  0  0  0  0  0  0  0  0  0
    3.7321   -3.7694    0.0000 C   0  0  0  0  0  0  0  0  0  0  0  0
    2.8660   -3.2694    0.0000 C   0  0  0  0  0  0  0  0  0  0  0  0
    2.8660   -2.2694    0.0000 C   0  0  0  0  0  0  0  0  0  0  0  0
    2.0000   -1.7694    0.0000 C   0  0  0  0  0  0  0  0  0  0  0  0
    4.5981    0.7306    0.0000 N   0  0  0  0  0  0  0  0  0  0  0  0
    5.4641    1.2306    0.0000 C   0  0  0  0  0  0  0  0  0  0  0  0
    6.3301    0.7306    0.0000 O   0  0  0  0  0  0  0  0  0  0  0  0
    5.4641    2.2306    0.0000 C   0  0  0  0  0  0  0  0  0  0  0  0
    6.2731    2.8184    0.0000 C   0  0  0  0  0  0  0  0  0  0  0  0
    5.9641    3.7694    0.0000 C   0  0  0  0  0  0  0  0  0  0  0  0
    4.9641    3.7694    0.0000 C   0  0  0  0  0  0  0  0  0  0  0  0
    4.6551    2.8184    0.0000 C   0  0  0  0  0  0  0  0  0  0  0  0
    6.8671   -0.5794    0.0000 H   0  0  0  0  0  0  0  0  0  0  0  0
    3.5200   -0.1868    0.0000 H   0  0  0  0  0  0  0  0  0  0  0  0
    3.1215   -0.8771    0.0000 H   0  0  0  0  0  0  0  0  0  0  0  0
    5.1350   -1.9594    0.0000 H   0  0  0  0  0  0  0  0  0  0  0  0
    5.1350   -3.5794    0.0000 H   0  0  0  0  0  0  0  0  0  0  0  0
    3.7321   -4.3894    0.0000 H   0  0  0  0  0  0  0  0  0  0  0  0
    2.3291   -3.5794    0.0000 H   0  0  0  0  0  0  0  0  0  0  0  0
    2.3100   -1.2325    0.0000 H   0  0  0  0  0  0  0  0  0  0  0  0
    1.4631   -1.4594    0.0000 H   0  0  0  0  0  0  0  0  0  0  0  0
    1.6900   -2.3064    0.0000 H   0  0  0  0  0  0  0  0  0  0  0  0
    4.0611    1.0406    0.0000 H   0  0  0  0  0  0  0  0  0  0  0  0
    6.0165    1.9491    0.0000 H   0  0  0  0  0  0  0  0  0  0  0  0
    6.5831    2.2814    0.0000 H   0  0  0  0  0  0  0  0  0  0  0  0
    6.8395    3.0705    0.0000 H   0  0  0  0  0  0  0  0  0  0  0  0
    6.5706    3.8983    0.0000 H   0  0  0  0  0  0  0  0  0  0  0  0
    5.8993    4.3860    0.0000 H   0  0  0  0  0  0  0  0  0  0  0  0
    5.0289    4.3860    0.0000 H   0  0  0  0  0  0  0  0  0  0  0  0
    4.3577    3.8983    0.0000 H   0  0  0  0  0  0  0  0  0  0  0  0
    4.0887    3.0705    0.0000 H   0  0  0  0  0  0  0  0  0  0  0  0
    4.3451    2.2814    0.0000 H   0  0  0  0  0  0  0  0  0  0  0  0
  1  2  1  0  0  0  0
  2  3  2  0  0  0  0
  2  4  1  0  0  0  0
  4  5  1  0  0  0  0
  4  6  1  0  0  0  0
  6  7  1  0  0  0  0
  7  8  1  0  0  0  0
  8  9  2  0  0  0  0
  9 10  1  0  0  0  0
 10 11  2  0  0  0  0
 11 12  1  0  0  0  0
  7 12  2  0  0  0  0
 12 13  1  0  0  0  0
  4 14  1  6  0  0  0
 14 15  1  0  0  0  0
 15 16  2  0  0  0  0
 15 17  1  0  0  0  0
 17 18  1  0  0  0  0
 18 19  1  0  0  0  0
 19 20  1  0  0  0  0
 20 21  1  0  0  0  0
 17 21  1  0  0  0  0
  1 22  1  0  0  0  0
  6 23  1  0  0  0  0
  6 24  1  0  0  0  0
  8 25  1  0  0  0  0
  9 26  1  0  0  0  0
 10 27  1  0  0  0  0
 11 28  1  0  0  0  0
 13 29  1  0  0  0  0
 13 30  1  0  0  0  0
 13 31  1  0  0  0  0
 14 32  1  0  0  0  0
 17 33  1  0  0  0  0
 18 34  1  0  0  0  0
 18 35  1  0  0  0  0
 19 36  1  0  0  0  0
 19 37  1  0  0  0  0
 20 38  1  0  0  0  0
 20 39  1  0  0  0  0
 21 40  1  0  0  0  0
 21 41  1  0  0  0  0
M  END
> <UNIQUE_SMILES>
CC1=C(C[C@H](NC(=O)C2CCCC2)C(O)=O)C=CC=C1

> <USER_SUPPLIED_SMILES>
OC(=O)[C@H](Cc1ccccc1C)NC(=O)C1CCCC1

$$$$
C17H23NO3
APtclcactv12202015312D 0   0.00000     0.00000    50
 
 44 45  0  0  0  0  0  0  0  0999 V2000
    6.3301   -0.2694    0.0000 O   0  0  0  0  0  0  0  0  0  0  0  0
    5.4641   -0.7694    0.0000 C   0  0  0  0  0  0  0  0  0  0  0  0
    5.4641   -1.7694    0.0000 O   0  0  0  0  0  0  0  0  0  0  0  0
    4.5981   -0.2694    0.0000 C   0  0  0  0  0  0  0  0  0  0  0  0
    3.7321   -0.7694    0.0000 C   0  0  0  0  0  0  0  0  0  0  0  0
    3.7321   -1.7694    0.0000 C   0  0  0  0  0  0  0  0  0  0  0  0
    4.5981   -2.2694    0.0000 C   0  0  0  0  0  0  0  0  0  0  0  0
    4.5981   -3.2694    0.0000 C   0  0  0  0  0  0  0  0  0  0  0  0
    5.4641   -3.7694    0.0000 C   0  0  0  0  0  0  0  0  0  0  0  0
    3.7321   -3.7694    0.0000 C   0  0  0  0  0  0  0  0  0  0  0  0
    2.8660   -3.2694    0.0000 C   0  0  0  0  0  0  0  0  0  0  0  0
    2.8660   -2.2694    0.0000 C   0  0  0  0  0  0  0  0  0  0  0  0
    2.0000   -1.7694    0.0000 C   0  0  0  0  0  0  0  0  0  0  0  0
    4.5981    0.7306    0.0000 N   0  0  0  0  0  0  0  0  0  0  0  0
    5.4641    1.2306    0.0000 C   0  0  0  0  0  0  0  0  0  0  0  0
    6.3301    0.7306    0.0000 O   0  0  0  0  0  0  0  0  0  0  0  0
    5.4641    2.2306    0.0000 C   0  0  0  0  0  0  0  0  0  0  0  0
    6.2731    2.8184    0.0000 C   0  0  0  0  0  0  0  0  0  0  0  0
    5.9641    3.7694    0.0000 C   0  0  0  0  0  0  0  0  0  0  0  0
    4.9641    3.7694    0.0000 C   0  0  0  0  0  0  0  0  0  0  0  0
    4.6551    2.8184    0.0000 C   0  0  0  0  0  0  0  0  0  0  0  0
    6.8671   -0.5794    0.0000 H   0  0  0  0  0  0  0  0  0  0  0  0
    5.1350    0.0406    0.0000 H   0  0  0  0  0  0  0  0  0  0  0  0
    3.5200   -0.1868    0.0000 H   0  0  0  0  0  0  0  0  0  0  0  0
    3.1215   -0.8771    0.0000 H   0  0  0  0  0  0  0  0  0  0  0  0
    5.1350   -1.9594    0.0000 H   0  0  0  0  0  0  0  0  0  0  0  0
    5.1541   -4.3064    0.0000 H   0  0  0  0  0  0  0  0  0  0  0  0
    6.0010   -4.0794    0.0000 H   0  0  0  0  0  0  0  0  0  0  0  0
    5.7741   -3.2325    0.0000 H   0  0  0  0  0  0  0  0  0  0  0  0
    3.7321   -4.3894    0.0000 H   0  0  0  0  0  0  0  0  0  0  0  0
    2.3291   -3.5794    0.0000 H   0  0  0  0  0  0  0  0  0  0  0  0
    2.3100   -1.2325    0.0000 H   0  0  0  0  0  0  0  0  0  0  0  0
    1.4631   -1.4594    0.0000 H   0  0  0  0  0  0  0  0  0  0  0  0
    1.6900   -2.3064    0.0000 H   0  0  0  0  0  0  0  0  0  0  0  0
    4.0611    1.0406    0.0000 H   0  0  0  0  0  0  0  0  0  0  0  0
    6.0165    1.9491    0.0000 H   0  0  0  0  0  0  0  0  0  0  0  0
    6.5831    2.2814    0.0000 H   0  0  0  0  0  0  0  0  0  0  0  0
    6.8395    3.0705    0.0000 H   0  0  0  0  0  0  0  0  0  0  0  0
    6.5706    3.8983    0.0000 H   0  0  0  0  0  0  0  0  0  0  0  0
    5.8993    4.3860    0.0000 H   0  0  0  0  0  0  0  0  0  0  0  0
    5.0289    4.3860    0.0000 H   0  0  0  0  0  0  0  0  0  0  0  0
    4.3577    3.8983    0.0000 H   0  0  0  0  0  0  0  0  0  0  0  0
    4.0887    3.0705    0.0000 H   0  0  0  0  0  0  0  0  0  0  0  0
    4.3451    2.2814    0.0000 H   0  0  0  0  0  0  0  0  0  0  0  0
  1  2  1  0  0  0  0
  2  3  2  0  0  0  0
  2  4  1  0  0  0  0
  4  5  1  0  0  0  0
  5  6  1  0  0  0  0
  6  7  1  0  0  0  0
  7  8  2  0  0  0  0
  8  9  1  0  0  0  0
  8 10  1  0  0  0  0
 10 11  2  0  0  0  0
 11 12  1  0  0  0  0
  6 12  2  0  0  0  0
 12 13  1  0  0  0  0
  4 14  1  0  0  0  0
 14 15  1  0  0  0  0
 15 16  2  0  0  0  0
 15 17  1  0  0  0  0
 17 18  1  0  0  0  0
 18 19  1  0  0  0  0
 19 20  1  0  0  0  0
 20 21  1  0  0  0  0
 17 21  1  0  0  0  0
  1 22  1  0  0  0  0
  4 23  1  0  0  0  0
  5 24  1  0  0  0  0
  5 25  1  0  0  0  0
  7 26  1  0  0  0  0
  9 27  1  0  0  0  0
  9 28  1  0  0  0  0
  9 29  1  0  0  0  0
 10 30  1  0  0  0  0
 11 31  1  0  0  0  0
 13 32  1  0  0  0  0
 13 33  1  0  0  0  0
 13 34  1  0  0  0  0
 14 35  1  0  0  0  0
 17 36  1  0  0  0  0
 18 37  1  0  0  0  0
 18 38  1  0  0  0  0
 19 39  1  0  0  0  0
 19 40  1  0  0  0  0
 20 41  1  0  0  0  0
 20 42  1  0  0  0  0
 21 43  1  0  0  0  0
 21 44  1  0  0  0  0
M  END
> <UNIQUE_SMILES>
CC1=CC(=C(C)C=C1)CC(NC(=O)C2CCCC2)C(O)=O

> <USER_SUPPLIED_SMILES>
OC(=O)C(Cc1cc(C)ccc1C)NC(=O)C1CCCC1

$$$$
C16H21NO3
APtclcactv12202015312D 0   0.00000     0.00000    51
 
 41 42  0  0  0  0  0  0  0  0999 V2000
    6.3301   -0.2694    0.0000 O   0  0  0  0  0  0  0  0  0  0  0  0
    5.4641   -0.7694    0.0000 C   0  0  0  0  0  0  0  0  0  0  0  0
    5.4641   -1.7694    0.0000 O   0  0  0  0  0  0  0  0  0  0  0  0
    4.5981   -0.2694    0.0000 C   0  0  0  0  0  0  0  0  0  0  0  0
    3.7321   -0.7694    0.0000 C   0  0  0  0  0  0  0  0  0  0  0  0
    3.7321   -1.7694    0.0000 C   0  0  0  0  0  0  0  0  0  0  0  0
    4.5981   -2.2694    0.0000 C   0  0  0  0  0  0  0  0  0  0  0  0
    4.5981   -3.2694    0.0000 C   0  0  0  0  0  0  0  0  0  0  0  0
    3.7321   -3.7694    0.0000 C   0  0  0  0  0  0  0  0  0  0  0  0
    2.8660   -3.2694    0.0000 C   0  0  0  0  0  0  0  0  0  0  0  0
    2.8660   -2.2694    0.0000 C   0  0  0  0  0  0  0  0  0  0  0  0
    2.0000   -1.7694    0.0000 C   0  0  0  0  0  0  0  0  0  0  0  0
    4.5981    0.7306    0.0000 N   0  0  0  0  0  0  0  0  0  0  0  0
    5.4641    1.2306    0.0000 C   0  0  0  0  0  0  0  0  0  0  0  0
    6.3301    0.7306    0.0000 O   0  0  0  0  0  0  0  0  0  0  0  0
    5.4641    2.2306    0.0000 C   0  0  0  0  0  0  0  0  0  0  0  0
    6.2731    2.8184    0.0000 C   0  0  0  0  0  0  0  0  0  0  0  0
    5.9641    3.7694    0.0000 C   0  0  0  0  0  0  0  0  0  0  0  0
    4.9641    3.7694    0.0000 C   0  0  0  0  0  0  0  0  0  0  0  0
    4.6551    2.8184    0.0000 C   0  0  0  0  0  0  0  0  0  0  0  0
    6.8671   -0.5794    0.0000 H   0  0  0  0  0  0  0  0  0  0  0  0
    5.1350    0.0406    0.0000 H   0  0  0  0  0  0  0  0  0  0  0  0
    3.5200   -0.1868    0.0000 H   0  0  0  0  0  0  0  0  0  0  0  0
    3.1215   -0.8771    0.0000 H   0  0  0  0  0  0  0  0  0  0  0  0
    5.1350   -1.9594    0.0000 H   0  0  0  0  0  0  0  0  0  0  0  0
    5.1350   -3.5794    0.0000 H   0  0  0  0  0  0  0  0  0  0  0  0
    3.7321   -4.3894    0.0000 H   0  0  0  0  0  0  0  0  0  0  0  0
    2.3291   -3.5794    0.0000 H   0  0  0  0  0  0  0  0  0  0  0  0
    2.3100   -1.2325    0.0000 H   0  0  0  0  0  0  0  0  0  0  0  0
    1.4631   -1.4594    0.0000 H   0  0  0  0  0  0  0  0  0  0  0  0
    1.6900   -2.3064    0.0000 H   0  0  0  0  0  0  0  0  0  0  0  0
    4.0611    1.0406    0.0000 H   0  0  0  0  0  0  0  0  0  0  0  0
    6.0165    1.9491    0.0000 H   0  0  0  0  0  0  0  0  0  0  0  0
    6.5831    2.2814    0.0000 H   0  0  0  0  0  0  0  0  0  0  0  0
    6.8395    3.0705    0.0000 H   0  0  0  0  0  0  0  0  0  0  0  0
    6.5706    3.8983    0.0000 H   0  0  0  0  0  0  0  0  0  0  0  0
    5.8993    4.3860    0.0000 H   0  0  0  0  0  0  0  0  0  0  0  0
    5.0289    4.3860    0.0000 H   0  0  0  0  0  0  0  0  0  0  0  0
    4.3577    3.8983    0.0000 H   0  0  0  0  0  0  0  0  0  0  0  0
    4.0887    3.0705    0.0000 H   0  0  0  0  0  0  0  0  0  0  0  0
    4.3451    2.2814    0.0000 H   0  0  0  0  0  0  0  0  0  0  0  0
  1  2  1  0  0  0  0
  2  3  2  0  0  0  0
  2  4  1  0  0  0  0
  4  5  1  0  0  0  0
  5  6  1  0  0  0  0
  6  7  1  0  0  0  0
  7  8  2  0  0  0  0
  8  9  1  0  0  0  0
  9 10  2  0  0  0  0
 10 11  1  0  0  0  0
  6 11  2  0  0  0  0
 11 12  1  0  0  0  0
  4 13  1  0  0  0  0
 13 14  1  0  0  0  0
 14 15  2  0  0  0  0
 14 16  1  0  0  0  0
 16 17  1  0  0  0  0
 17 18  1  0  0  0  0
 18 19  1  0  0  0  0
 19 20  1  0  0  0  0
 16 20  1  0  0  0  0
  1 21  1  0  0  0  0
  4 22  1  0  0  0  0
  5 23  1  0  0  0  0
  5 24  1  0  0  0  0
  7 25  1  0  0  0  0
  8 26  1  0  0  0  0
  9 27  1  0  0  0  0
 10 28  1  0  0  0  0
 12 29  1  0  0  0  0
 12 30  1  0  0  0  0
 12 31  1  0  0  0  0
 13 32  1  0  0  0  0
 16 33  1  0  0  0  0
 17 34  1  0  0  0  0
 17 35  1  0  0  0  0
 18 36  1  0  0  0  0
 18 37  1  0  0  0  0
 19 38  1  0  0  0  0
 19 39  1  0  0  0  0
 20 40  1  0  0  0  0
 20 41  1  0  0  0  0
M  END
> <UNIQUE_SMILES>
CC1=C(CC(NC(=O)C2CCCC2)C(O)=O)C=CC=C1

> <USER_SUPPLIED_SMILES>
OC(=O)C(Cc1ccccc1C)NC(=O)C1CCCC1

$$$$
C17H23NO3
APtclcactv12202015312D 0   0.00000     0.00000    52
 
 44 45  0  0  0  0  0  0  0  0999 V2000
    6.3301    0.2306    0.0000 O   0  0  0  0  0  0  0  0  0  0  0  0
    5.4641   -0.2694    0.0000 C   0  0  0  0  0  0  0  0  0  0  0  0
    5.4641   -1.2694    0.0000 O   0  0  0  0  0  0  0  0  0  0  0  0
    4.5981    0.2306    0.0000 C   0  0  0  0  0  0  0  0  0  0  0  0
    3.7321   -0.2694    0.0000 C   0  0  0  0  0  0  0  0  0  0  0  0
    3.7321   -1.2694    0.0000 C   0  0  0  0  0  0  0  0  0  0  0  0
    4.5981   -1.7694    0.0000 C   0  0  0  0  0  0  0  0  0  0  0  0
    4.5981   -2.7694    0.0000 C   0  0  0  0  0  0  0  0  0  0  0  0
    3.7321   -3.2694    0.0000 C   0  0  0  0  0  0  0  0  0  0  0  0
    2.8660   -2.7694    0.0000 C   0  0  0  0  0  0  0  0  0  0  0  0
    2.8660   -1.7694    0.0000 C   0  0  0  0  0  0  0  0  0  0  0  0
    2.0000   -1.2694    0.0000 C   0  0  0  0  0  0  0  0  0  0  0  0
    3.7321   -4.2694    0.0000 C   0  0  0  0  0  0  0  0  0  0  0  0
    4.5981    1.2306    0.0000 N   0  0  0  0  0  0  0  0  0  0  0  0
    5.4641    1.7306    0.0000 C   0  0  0  0  0  0  0  0  0  0  0  0
    6.3301    1.2306    0.0000 O   0  0  0  0  0  0  0  0  0  0  0  0
    5.4641    2.7306    0.0000 C   0  0  0  0  0  0  0  0  0  0  0  0
    6.2731    3.3184    0.0000 C   0  0  0  0  0  0  0  0  0  0  0  0
    5.9641    4.2694    0.0000 C   0  0  0  0  0  0  0  0  0  0  0  0
    4.9641    4.2694    0.0000 C   0  0  0  0  0  0  0  0  0  0  0  0
    4.6551    3.3184    0.0000 C   0  0  0  0  0  0  0  0  0  0  0  0
    6.8671   -0.0794    0.0000 H   0  0  0  0  0  0  0  0  0  0  0  0
    5.1350    0.5406    0.0000 H   0  0  0  0  0  0  0  0  0  0  0  0
    3.5200    0.3132    0.0000 H   0  0  0  0  0  0  0  0  0  0  0  0
    3.1215   -0.3771    0.0000 H   0  0  0  0  0  0  0  0  0  0  0  0
    5.1350   -1.4594    0.0000 H   0  0  0  0  0  0  0  0  0  0  0  0
    5.1350   -3.0794    0.0000 H   0  0  0  0  0  0  0  0  0  0  0  0
    2.3291   -3.0794    0.0000 H   0  0  0  0  0  0  0  0  0  0  0  0
    2.3100   -0.7325    0.0000 H   0  0  0  0  0  0  0  0  0  0  0  0
    1.4631   -0.9594    0.0000 H   0  0  0  0  0  0  0  0  0  0  0  0
    1.6900   -1.8064    0.0000 H   0  0  0  0  0  0  0  0  0  0  0  0
    3.1121   -4.2694    0.0000 H   0  0  0  0  0  0  0  0  0  0  0  0
    3.7321   -4.8894    0.0000 H   0  0  0  0  0  0  0  0  0  0  0  0
    4.3521   -4.2694    0.0000 H   0  0  0  0  0  0  0  0  0  0  0  0
    4.0611    1.5406    0.0000 H   0  0  0  0  0  0  0  0  0  0  0  0
    6.0165    2.4491    0.0000 H   0  0  0  0  0  0  0  0  0  0  0  0
    6.5831    2.7814    0.0000 H   0  0  0  0  0  0  0  0  0  0  0  0
    6.8395    3.5705    0.0000 H   0  0  0  0  0  0  0  0  0  0  0  0
    6.5706    4.3983    0.0000 H   0  0  0  0  0  0  0  0  0  0  0  0
    5.8993    4.8860    0.0000 H   0  0  0  0  0  0  0  0  0  0  0  0
    5.0289    4.8860    0.0000 H   0  0  0  0  0  0  0  0  0  0  0  0
    4.3577    4.3983    0.0000 H   0  0  0  0  0  0  0  0  0  0  0  0
    4.0887    3.5705    0.0000 H   0  0  0  0  0  0  0  0  0  0  0  0
    4.3451    2.7814    0.0000 H   0  0  0  0  0  0  0  0  0  0  0  0
  1  2  1  0  0  0  0
  2  3  2  0  0  0  0
  2  4  1  0  0  0  0
  4  5  1  0  0  0  0
  5  6  1  0  0  0  0
  6  7  1  0  0  0  0
  7  8  2  0  0  0  0
  8  9  1  0  0  0  0
  9 10  2  0  0  0  0
 10 11  1  0  0  0  0
  6 11  2  0  0  0  0
 11 12  1  0  0  0  0
  9 13  1  0  0  0  0
  4 14  1  0  0  0  0
 14 15  1  0  0  0  0
 15 16  2  0  0  0  0
 15 17  1  0  0  0  0
 17 18  1  0  0  0  0
 18 19  1  0  0  0  0
 19 20  1  0  0  0  0
 20 21  1  0  0  0  0
 17 21  1  0  0  0  0
  1 22  1  0  0  0  0
  4 23  1  0  0  0  0
  5 24  1  0  0  0  0
  5 25  1  0  0  0  0
  7 26  1  0  0  0  0
  8 27  1  0  0  0  0
 10 28  1  0  0  0  0
 12 29  1  0  0  0  0
 12 30  1  0  0  0  0
 12 31  1  0  0  0  0
 13 32  1  0  0  0  0
 13 33  1  0  0  0  0
 13 34  1  0  0  0  0
 14 35  1  0  0  0  0
 17 36  1  0  0  0  0
 18 37  1  0  0  0  0
 18 38  1  0  0  0  0
 19 39  1  0  0  0  0
 19 40  1  0  0  0  0
 20 41  1  0  0  0  0
 20 42  1  0  0  0  0
 21 43  1  0  0  0  0
 21 44  1  0  0  0  0
M  END
> <UNIQUE_SMILES>
CC1=CC(=C(CC(NC(=O)C2CCCC2)C(O)=O)C=C1)C

> <USER_SUPPLIED_SMILES>
OC(=O)C(Cc1ccc(cc1C)C)NC(=O)C1CCCC1

$$$$
C17H23NO3
APtclcactv12202015312D 0   0.00000     0.00000    53
 
 44 45  0  0  0  0  0  0  0  0999 V2000
    6.3301    0.2306    0.0000 O   0  0  0  0  0  0  0  0  0  0  0  0
    5.4641   -0.2694    0.0000 C   0  0  0  0  0  0  0  0  0  0  0  0
    5.4641   -1.2694    0.0000 O   0  0  0  0  0  0  0  0  0  0  0  0
    4.5981    0.2306    0.0000 C   0  0  0  0  0  0  0  0  0  0  0  0
    3.7321   -0.2694    0.0000 C   0  0  0  0  0  0  0  0  0  0  0  0
    3.7321   -1.2694    0.0000 C   0  0  0  0  0  0  0  0  0  0  0  0
    4.5981   -1.7694    0.0000 C   0  0  0  0  0  0  0  0  0  0  0  0
    4.5981   -2.7694    0.0000 C   0  0  0  0  0  0  0  0  0  0  0  0
    3.7321   -3.2694    0.0000 C   0  0  0  0  0  0  0  0  0  0  0  0
    2.8660   -2.7694    0.0000 C   0  0  0  0  0  0  0  0  0  0  0  0
    2.8660   -1.7694    0.0000 C   0  0  0  0  0  0  0  0  0  0  0  0
    2.0000   -1.2694    0.0000 C   0  0  0  0  0  0  0  0  0  0  0  0
    3.7321   -4.2694    0.0000 C   0  0  0  0  0  0  0  0  0  0  0  0
    4.5981    1.2306    0.0000 N   0  0  0  0  0  0  0  0  0  0  0  0
    5.4641    1.7306    0.0000 C   0  0  0  0  0  0  0  0  0  0  0  0
    6.3301    1.2306    0.0000 O   0  0  0  0  0  0  0  0  0  0  0  0
    5.4641    2.7306    0.0000 C   0  0  0  0  0  0  0  0  0  0  0  0
    6.2731    3.3184    0.0000 C   0  0  0  0  0  0  0  0  0  0  0  0
    5.9641    4.2694    0.0000 C   0  0  0  0  0  0  0  0  0  0  0  0
    4.9641    4.2694    0.0000 C   0  0  0  0  0  0  0  0  0  0  0  0
    4.6551    3.3184    0.0000 C   0  0  0  0  0  0  0  0  0  0  0  0
    6.8671   -0.0794    0.0000 H   0  0  0  0  0  0  0  0  0  0  0  0
    5.1350    0.5406    0.0000 H   0  0  0  0  0  0  0  0  0  0  0  0
    3.5200    0.3132    0.0000 H   0  0  0  0  0  0  0  0  0  0  0  0
    3.1215   -0.3771    0.0000 H   0  0  0  0  0  0  0  0  0  0  0  0
    5.1350   -1.4594    0.0000 H   0  0  0  0  0  0  0  0  0  0  0  0
    5.1350   -3.0794    0.0000 H   0  0  0  0  0  0  0  0  0  0  0  0
    2.3291   -3.0794    0.0000 H   0  0  0  0  0  0  0  0  0  0  0  0
    2.3100   -0.7325    0.0000 H   0  0  0  0  0  0  0  0  0  0  0  0
    1.4631   -0.9594    0.0000 H   0  0  0  0  0  0  0  0  0  0  0  0
    1.6900   -1.8064    0.0000 H   0  0  0  0  0  0  0  0  0  0  0  0
    3.1121   -4.2694    0.0000 H   0  0  0  0  0  0  0  0  0  0  0  0
    3.7321   -4.8894    0.0000 H   0  0  0  0  0  0  0  0  0  0  0  0
    4.3521   -4.2694    0.0000 H   0  0  0  0  0  0  0  0  0  0  0  0
    4.0611    1.5406    0.0000 H   0  0  0  0  0  0  0  0  0  0  0  0
    6.0165    2.4491    0.0000 H   0  0  0  0  0  0  0  0  0  0  0  0
    6.5831    2.7814    0.0000 H   0  0  0  0  0  0  0  0  0  0  0  0
    6.8395    3.5705    0.0000 H   0  0  0  0  0  0  0  0  0  0  0  0
    6.5706    4.3983    0.0000 H   0  0  0  0  0  0  0  0  0  0  0  0
    5.8993    4.8860    0.0000 H   0  0  0  0  0  0  0  0  0  0  0  0
    5.0289    4.8860    0.0000 H   0  0  0  0  0  0  0  0  0  0  0  0
    4.3577    4.3983    0.0000 H   0  0  0  0  0  0  0  0  0  0  0  0
    4.0887    3.5705    0.0000 H   0  0  0  0  0  0  0  0  0  0  0  0
    4.3451    2.7814    0.0000 H   0  0  0  0  0  0  0  0  0  0  0  0
  1  2  1  0  0  0  0
  2  3  2  0  0  0  0
  2  4  1  0  0  0  0
  4  5  1  0  0  0  0
  5  6  1  0  0  0  0
  6  7  1  0  0  0  0
  7  8  2  0  0  0  0
  8  9  1  0  0  0  0
  9 10  2  0  0  0  0
 10 11  1  0  0  0  0
  6 11  2  0  0  0  0
 11 12  1  0  0  0  0
  9 13  1  0  0  0  0
  4 14  1  0  0  0  0
 14 15  1  0  0  0  0
 15 16  2  0  0  0  0
 15 17  1  0  0  0  0
 17 18  1  0  0  0  0
 18 19  1  0  0  0  0
 19 20  1  0  0  0  0
 20 21  1  0  0  0  0
 17 21  1  0  0  0  0
  1 22  1  0  0  0  0
  4 23  1  0  0  0  0
  5 24  1  0  0  0  0
  5 25  1  0  0  0  0
  7 26  1  0  0  0  0
  8 27  1  0  0  0  0
 10 28  1  0  0  0  0
 12 29  1  0  0  0  0
 12 30  1  0  0  0  0
 12 31  1  0  0  0  0
 13 32  1  0  0  0  0
 13 33  1  0  0  0  0
 13 34  1  0  0  0  0
 14 35  1  0  0  0  0
 17 36  1  0  0  0  0
 18 37  1  0  0  0  0
 18 38  1  0  0  0  0
 19 39  1  0  0  0  0
 19 40  1  0  0  0  0
 20 41  1  0  0  0  0
 20 42  1  0  0  0  0
 21 43  1  0  0  0  0
 21 44  1  0  0  0  0
M  END
> <UNIQUE_SMILES>
CC1=CC(=C(CC(NC(=O)C2CCCC2)C(O)=O)C=C1)C

> <USER_SUPPLIED_SMILES>
OC(=O)C(Cc1ccc(cc1C)C)NC(=O)C1CCCC1

$$$$
C18H25NO3
APtclcactv12202015312D 0   0.00000     0.00000    54
 
 47 48  0  0  1  0  0  0  0  0999 V2000
    4.2321    3.0306    0.0000 O   0  0  0  0  0  0  0  0  0  0  0  0
    3.7321    2.1645    0.0000 C   0  0  0  0  0  0  0  0  0  0  0  0
    2.7321    2.1645    0.0000 O   0  0  0  0  0  0  0  0  0  0  0  0
    4.2321    1.2985    0.0000 C   0  0  2  0  0  0  0  0  0  0  0  0
    4.5421    0.7616    0.0000 H   0  0  0  0  0  0  0  0  0  0  0  0
    3.7321    0.4325    0.0000 C   0  0  0  0  0  0  0  0  0  0  0  0
    3.7321   -0.5675    0.0000 C   0  0  0  0  0  0  0  0  0  0  0  0
    2.8660   -1.0675    0.0000 C   0  0  0  0  0  0  0  0  0  0  0  0
    2.0000   -0.5675    0.0000 C   0  0  0  0  0  0  0  0  0  0  0  0
    2.8660   -2.0675    0.0000 C   0  0  0  0  0  0  0  0  0  0  0  0
    3.7321   -2.5675    0.0000 C   0  0  0  0  0  0  0  0  0  0  0  0
    4.5981   -2.0675    0.0000 C   0  0  0  0  0  0  0  0  0  0  0  0
    4.5981   -1.0675    0.0000 C   0  0  0  0  0  0  0  0  0  0  0  0
    5.4641   -0.5675    0.0000 C   0  0  0  0  0  0  0  0  0  0  0  0
    3.7321   -3.5675    0.0000 C   0  0  0  0  0  0  0  0  0  0  0  0
    5.2321    1.2985    0.0000 N   0  0  0  0  0  0  0  0  0  0  0  0
    5.7321    2.1645    0.0000 C   0  0  0  0  0  0  0  0  0  0  0  0
    5.2321    3.0306    0.0000 O   0  0  0  0  0  0  0  0  0  0  0  0
    6.7321    2.1645    0.0000 C   0  0  0  0  0  0  0  0  0  0  0  0
    7.3198    2.9736    0.0000 C   0  0  0  0  0  0  0  0  0  0  0  0
    8.2709    2.6645    0.0000 C   0  0  0  0  0  0  0  0  0  0  0  0
    8.2709    1.6645    0.0000 C   0  0  0  0  0  0  0  0  0  0  0  0
    7.3198    1.3555    0.0000 C   0  0  0  0  0  0  0  0  0  0  0  0
    3.9221    3.5675    0.0000 H   0  0  0  0  0  0  0  0  0  0  0  0
    3.3335    0.9074    0.0000 H   0  0  0  0  0  0  0  0  0  0  0  0
    4.3309    0.2720    0.0000 H   0  0  0  0  0  0  0  0  0  0  0  0
    2.3100   -0.0306    0.0000 H   0  0  0  0  0  0  0  0  0  0  0  0
    1.4631   -0.2575    0.0000 H   0  0  0  0  0  0  0  0  0  0  0  0
    1.6900   -1.1044    0.0000 H   0  0  0  0  0  0  0  0  0  0  0  0
    2.3291   -2.3775    0.0000 H   0  0  0  0  0  0  0  0  0  0  0  0
    5.1350   -2.3775    0.0000 H   0  0  0  0  0  0  0  0  0  0  0  0
    5.7741   -1.1044    0.0000 H   0  0  0  0  0  0  0  0  0  0  0  0
    6.0010   -0.2575    0.0000 H   0  0  0  0  0  0  0  0  0  0  0  0
    5.1541   -0.0306    0.0000 H   0  0  0  0  0  0  0  0  0  0  0  0
    3.1121   -3.5675    0.0000 H   0  0  0  0  0  0  0  0  0  0  0  0
    3.7321   -4.1875    0.0000 H   0  0  0  0  0  0  0  0  0  0  0  0
    4.3521   -3.5675    0.0000 H   0  0  0  0  0  0  0  0  0  0  0  0
    5.5421    0.7616    0.0000 H   0  0  0  0  0  0  0  0  0  0  0  0
    6.4506    2.7170    0.0000 H   0  0  0  0  0  0  0  0  0  0  0  0
    7.5720    3.5400    0.0000 H   0  0  0  0  0  0  0  0  0  0  0  0
    6.7829    3.2836    0.0000 H   0  0  0  0  0  0  0  0  0  0  0  0
    8.8875    2.5997    0.0000 H   0  0  0  0  0  0  0  0  0  0  0  0
    8.3998    3.2710    0.0000 H   0  0  0  0  0  0  0  0  0  0  0  0
    8.3998    1.0581    0.0000 H   0  0  0  0  0  0  0  0  0  0  0  0
    8.8875    1.7294    0.0000 H   0  0  0  0  0  0  0  0  0  0  0  0
    6.7829    1.0455    0.0000 H   0  0  0  0  0  0  0  0  0  0  0  0
    7.5720    0.7891    0.0000 H   0  0  0  0  0  0  0  0  0  0  0  0
  1  2  1  0  0  0  0
  2  3  2  0  0  0  0
  2  4  1  0  0  0  0
  4  5  1  0  0  0  0
  4  6  1  0  0  0  0
  6  7  1  0  0  0  0
  7  8  1  0  0  0  0
  8  9  1  0  0  0  0
  8 10  2  0  0  0  0
 10 11  1  0  0  0  0
 11 12  2  0  0  0  0
 12 13  1  0  0  0  0
  7 13  2  0  0  0  0
 13 14  1  0  0  0  0
 11 15  1  0  0  0  0
  4 16  1  1  0  0  0
 16 17  1  0  0  0  0
 17 18  2  0  0  0  0
 17 19  1  0  0  0  0
 19 20  1  0  0  0  0
 20 21  1  0  0  0  0
 21 22  1  0  0  0  0
 22 23  1  0  0  0  0
 19 23  1  0  0  0  0
  1 24  1  0  0  0  0
  6 25  1  0  0  0  0
  6 26  1  0  0  0  0
  9 27  1  0  0  0  0
  9 28  1  0  0  0  0
  9 29  1  0  0  0  0
 10 30  1  0  0  0  0
 12 31  1  0  0  0  0
 14 32  1  0  0  0  0
 14 33  1  0  0  0  0
 14 34  1  0  0  0  0
 15 35  1  0  0  0  0
 15 36  1  0  0  0  0
 15 37  1  0  0  0  0
 16 38  1  0  0  0  0
 19 39  1  0  0  0  0
 20 40  1  0  0  0  0
 20 41  1  0  0  0  0
 21 42  1  0  0  0  0
 21 43  1  0  0  0  0
 22 44  1  0  0  0  0
 22 45  1  0  0  0  0
 23 46  1  0  0  0  0
 23 47  1  0  0  0  0
M  END
> <UNIQUE_SMILES>
CC1=CC(=C(C[C@H](NC(=O)C2CCCC2)C(O)=O)C(=C1)C)C

> <USER_SUPPLIED_SMILES>
OC(=O)[C@H](Cc1c(C)cc(cc1C)C)NC(=O)C1CCCC1

$$$$
C18H25NO3
APtclcactv12202015312D 0   0.00000     0.00000    55
 
 47 48  0  0  0  0  0  0  0  0999 V2000
    5.4641   -4.0000    0.0000 C   0  0  0  0  0  0  0  0  0  0  0  0
    4.5981   -3.5000    0.0000 C   0  0  0  0  0  0  0  0  0  0  0  0
    3.7321   -4.0000    0.0000 C   0  0  0  0  0  0  0  0  0  0  0  0
    2.8660   -3.5000    0.0000 C   0  0  0  0  0  0  0  0  0  0  0  0
    2.8660   -2.5000    0.0000 C   0  0  0  0  0  0  0  0  0  0  0  0
    3.7321   -2.0000    0.0000 C   0  0  0  0  0  0  0  0  0  0  0  0
    4.5981   -2.5000    0.0000 C   0  0  0  0  0  0  0  0  0  0  0  0
    3.7321   -1.0000    0.0000 C   0  0  0  0  0  0  0  0  0  0  0  0
    4.5981   -0.5000    0.0000 C   0  0  0  0  0  0  0  0  0  0  0  0
    5.4641   -1.0000    0.0000 C   0  0  0  0  0  0  0  0  0  0  0  0
    5.4641   -2.0000    0.0000 O   0  0  0  0  0  0  0  0  0  0  0  0
    6.3301   -0.5000    0.0000 O   0  0  0  0  0  0  0  0  0  0  0  0
    4.5981    0.5000    0.0000 N   0  0  0  0  0  0  0  0  0  0  0  0
    5.4641    1.0000    0.0000 C   0  0  0  0  0  0  0  0  0  0  0  0
    6.3301    0.5000    0.0000 O   0  0  0  0  0  0  0  0  0  0  0  0
    5.4641    2.0000    0.0000 C   0  0  0  0  0  0  0  0  0  0  0  0
    6.3301    2.5000    0.0000 C   0  0  0  0  0  0  0  0  0  0  0  0
    6.3301    3.5000    0.0000 C   0  0  0  0  0  0  0  0  0  0  0  0
    5.4641    4.0000    0.0000 C   0  0  0  0  0  0  0  0  0  0  0  0
    4.5981    3.5000    0.0000 C   0  0  0  0  0  0  0  0  0  0  0  0
    4.5981    2.5000    0.0000 C   0  0  0  0  0  0  0  0  0  0  0  0
    2.0000   -2.0000    0.0000 C   0  0  0  0  0  0  0  0  0  0  0  0
    5.1541   -4.5369    0.0000 H   0  0  0  0  0  0  0  0  0  0  0  0
    6.0010   -4.3100    0.0000 H   0  0  0  0  0  0  0  0  0  0  0  0
    5.7741   -3.4631    0.0000 H   0  0  0  0  0  0  0  0  0  0  0  0
    3.7321   -4.6200    0.0000 H   0  0  0  0  0  0  0  0  0  0  0  0
    2.3291   -3.8100    0.0000 H   0  0  0  0  0  0  0  0  0  0  0  0
    5.1350   -2.1900    0.0000 H   0  0  0  0  0  0  0  0  0  0  0  0
    3.5200   -0.4174    0.0000 H   0  0  0  0  0  0  0  0  0  0  0  0
    3.1215   -1.1077    0.0000 H   0  0  0  0  0  0  0  0  0  0  0  0
    5.1350   -0.1900    0.0000 H   0  0  0  0  0  0  0  0  0  0  0  0
    6.8671   -0.8100    0.0000 H   0  0  0  0  0  0  0  0  0  0  0  0
    4.0611    0.8100    0.0000 H   0  0  0  0  0  0  0  0  0  0  0  0
    6.0010    1.6900    0.0000 H   0  0  0  0  0  0  0  0  0  0  0  0
    6.5422    1.9174    0.0000 H   0  0  0  0  0  0  0  0  0  0  0  0
    6.9407    2.6077    0.0000 H   0  0  0  0  0  0  0  0  0  0  0  0
    6.9407    3.3923    0.0000 H   0  0  0  0  0  0  0  0  0  0  0  0
    6.5422    4.0826    0.0000 H   0  0  0  0  0  0  0  0  0  0  0  0
    5.8626    4.4749    0.0000 H   0  0  0  0  0  0  0  0  0  0  0  0
    5.0656    4.4749    0.0000 H   0  0  0  0  0  0  0  0  0  0  0  0
    4.3860    4.0826    0.0000 H   0  0  0  0  0  0  0  0  0  0  0  0
    3.9875    3.3923    0.0000 H   0  0  0  0  0  0  0  0  0  0  0  0
    3.9875    2.6077    0.0000 H   0  0  0  0  0  0  0  0  0  0  0  0
    4.3860    1.9174    0.0000 H   0  0  0  0  0  0  0  0  0  0  0  0
    2.3100   -1.4631    0.0000 H   0  0  0  0  0  0  0  0  0  0  0  0
    1.4631   -1.6900    0.0000 H   0  0  0  0  0  0  0  0  0  0  0  0
    1.6900   -2.5369    0.0000 H   0  0  0  0  0  0  0  0  0  0  0  0
  1  2  1  0  0  0  0
  2  3  1  0  0  0  0
  3  4  2  0  0  0  0
  4  5  1  0  0  0  0
  5  6  2  0  0  0  0
  6  7  1  0  0  0  0
  2  7  2  0  0  0  0
  6  8  1  0  0  0  0
  8  9  1  0  0  0  0
  9 10  1  0  0  0  0
 10 11  2  0  0  0  0
 10 12  1  0  0  0  0
  9 13  1  0  0  0  0
 13 14  1  0  0  0  0
 14 15  2  0  0  0  0
 14 16  1  0  0  0  0
 16 17  1  0  0  0  0
 17 18  1  0  0  0  0
 18 19  1  0  0  0  0
 19 20  1  0  0  0  0
 20 21  1  0  0  0  0
 16 21  1  0  0  0  0
  5 22  1  0  0  0  0
  1 23  1  0  0  0  0
  1 24  1  0  0  0  0
  1 25  1  0  0  0  0
  3 26  1  0  0  0  0
  4 27  1  0  0  0  0
  7 28  1  0  0  0  0
  8 29  1  0  0  0  0
  8 30  1  0  0  0  0
  9 31  1  0  0  0  0
 12 32  1  0  0  0  0
 13 33  1  0  0  0  0
 16 34  1  0  0  0  0
 17 35  1  0  0  0  0
 17 36  1  0  0  0  0
 18 37  1  0  0  0  0
 18 38  1  0  0  0  0
 19 39  1  0  0  0  0
 19 40  1  0  0  0  0
 20 41  1  0  0  0  0
 20 42  1  0  0  0  0
 21 43  1  0  0  0  0
 21 44  1  0  0  0  0
 22 45  1  0  0  0  0
 22 46  1  0  0  0  0
 22 47  1  0  0  0  0
M  END
> <UNIQUE_SMILES>
CC1=CC(=C(C)C=C1)CC(NC(=O)C2CCCCC2)C(O)=O

> <USER_SUPPLIED_SMILES>
Cc1ccc(c(c1)CC(C(=O)O)NC(=O)C1CCCCC1)C

$$$$
C17H23NO3
APtclcactv12202015312D 0   0.00000     0.00000    56
 
 44 45  0  0  1  0  0  0  0  0999 V2000
    6.3301   -0.2694    0.0000 O   0  0  0  0  0  0  0  0  0  0  0  0
    5.4641   -0.7694    0.0000 C   0  0  0  0  0  0  0  0  0  0  0  0
    5.4641   -1.7694    0.0000 O   0  0  0  0  0  0  0  0  0  0  0  0
    4.5981   -0.2694    0.0000 C   0  0  2  0  0  0  0  0  0  0  0  0
    5.1350    0.0406    0.0000 H   0  0  0  0  0  0  0  0  0  0  0  0
    3.7321   -0.7694    0.0000 C   0  0  0  0  0  0  0  0  0  0  0  0
    3.7321   -1.7694    0.0000 C   0  0  0  0  0  0  0  0  0  0  0  0
    4.5981   -2.2694    0.0000 C   0  0  0  0  0  0  0  0  0  0  0  0
    4.5981   -3.2694    0.0000 C   0  0  0  0  0  0  0  0  0  0  0  0
    5.4641   -3.7694    0.0000 C   0  0  0  0  0  0  0  0  0  0  0  0
    3.7321   -3.7694    0.0000 C   0  0  0  0  0  0  0  0  0  0  0  0
    2.8660   -3.2694    0.0000 C   0  0  0  0  0  0  0  0  0  0  0  0
    2.8660   -2.2694    0.0000 C   0  0  0  0  0  0  0  0  0  0  0  0
    2.0000   -1.7694    0.0000 C   0  0  0  0  0  0  0  0  0  0  0  0
    4.5981    0.7306    0.0000 N   0  0  0  0  0  0  0  0  0  0  0  0
    5.4641    1.2306    0.0000 C   0  0  0  0  0  0  0  0  0  0  0  0
    6.3301    0.7306    0.0000 O   0  0  0  0  0  0  0  0  0  0  0  0
    5.4641    2.2306    0.0000 C   0  0  0  0  0  0  0  0  0  0  0  0
    6.2731    2.8184    0.0000 C   0  0  0  0  0  0  0  0  0  0  0  0
    5.9641    3.7694    0.0000 C   0  0  0  0  0  0  0  0  0  0  0  0
    4.9641    3.7694    0.0000 C   0  0  0  0  0  0  0  0  0  0  0  0
    4.6551    2.8184    0.0000 C   0  0  0  0  0  0  0  0  0  0  0  0
    6.8671   -0.5794    0.0000 H   0  0  0  0  0  0  0  0  0  0  0  0
    3.5200   -0.1868    0.0000 H   0  0  0  0  0  0  0  0  0  0  0  0
    3.1215   -0.8771    0.0000 H   0  0  0  0  0  0  0  0  0  0  0  0
    5.1350   -1.9594    0.0000 H   0  0  0  0  0  0  0  0  0  0  0  0
    5.1541   -4.3064    0.0000 H   0  0  0  0  0  0  0  0  0  0  0  0
    6.0010   -4.0794    0.0000 H   0  0  0  0  0  0  0  0  0  0  0  0
    5.7741   -3.2325    0.0000 H   0  0  0  0  0  0  0  0  0  0  0  0
    3.7321   -4.3894    0.0000 H   0  0  0  0  0  0  0  0  0  0  0  0
    2.3291   -3.5794    0.0000 H   0  0  0  0  0  0  0  0  0  0  0  0
    2.3100   -1.2325    0.0000 H   0  0  0  0  0  0  0  0  0  0  0  0
    1.4631   -1.4594    0.0000 H   0  0  0  0  0  0  0  0  0  0  0  0
    1.6900   -2.3064    0.0000 H   0  0  0  0  0  0  0  0  0  0  0  0
    4.0611    1.0406    0.0000 H   0  0  0  0  0  0  0  0  0  0  0  0
    6.0165    1.9491    0.0000 H   0  0  0  0  0  0  0  0  0  0  0  0
    6.5831    2.2814    0.0000 H   0  0  0  0  0  0  0  0  0  0  0  0
    6.8395    3.0705    0.0000 H   0  0  0  0  0  0  0  0  0  0  0  0
    6.5706    3.8983    0.0000 H   0  0  0  0  0  0  0  0  0  0  0  0
    5.8993    4.3860    0.0000 H   0  0  0  0  0  0  0  0  0  0  0  0
    5.0289    4.3860    0.0000 H   0  0  0  0  0  0  0  0  0  0  0  0
    4.3577    3.8983    0.0000 H   0  0  0  0  0  0  0  0  0  0  0  0
    4.0887    3.0705    0.0000 H   0  0  0  0  0  0  0  0  0  0  0  0
    4.3451    2.2814    0.0000 H   0  0  0  0  0  0  0  0  0  0  0  0
  1  2  1  0  0  0  0
  2  3  2  0  0  0  0
  2  4  1  0  0  0  0
  4  5  1  0  0  0  0
  4  6  1  0  0  0  0
  6  7  1  0  0  0  0
  7  8  1  0  0  0  0
  8  9  2  0  0  0  0
  9 10  1  0  0  0  0
  9 11  1  0  0  0  0
 11 12  2  0  0  0  0
 12 13  1  0  0  0  0
  7 13  2  0  0  0  0
 13 14  1  0  0  0  0
  4 15  1  6  0  0  0
 15 16  1  0  0  0  0
 16 17  2  0  0  0  0
 16 18  1  0  0  0  0
 18 19  1  0  0  0  0
 19 20  1  0  0  0  0
 20 21  1  0  0  0  0
 21 22  1  0  0  0  0
 18 22  1  0  0  0  0
  1 23  1  0  0  0  0
  6 24  1  0  0  0  0
  6 25  1  0  0  0  0
  8 26  1  0  0  0  0
 10 27  1  0  0  0  0
 10 28  1  0  0  0  0
 10 29  1  0  0  0  0
 11 30  1  0  0  0  0
 12 31  1  0  0  0  0
 14 32  1  0  0  0  0
 14 33  1  0  0  0  0
 14 34  1  0  0  0  0
 15 35  1  0  0  0  0
 18 36  1  0  0  0  0
 19 37  1  0  0  0  0
 19 38  1  0  0  0  0
 20 39  1  0  0  0  0
 20 40  1  0  0  0  0
 21 41  1  0  0  0  0
 21 42  1  0  0  0  0
 22 43  1  0  0  0  0
 22 44  1  0  0  0  0
M  END
> <UNIQUE_SMILES>
CC1=CC(=C(C)C=C1)C[C@H](NC(=O)C2CCCC2)C(O)=O

> <USER_SUPPLIED_SMILES>
OC(=O)[C@H](Cc1cc(C)ccc1C)NC(=O)C1CCCC1

$$$$
C18H25NO3
APtclcactv12202015312D 0   0.00000     0.00000    57
 
 47 48  0  0  0  0  0  0  0  0999 V2000
    6.3301    0.0000    0.0000 O   0  0  0  0  0  0  0  0  0  0  0  0
    5.4641   -0.5000    0.0000 C   0  0  0  0  0  0  0  0  0  0  0  0
    5.4641   -1.5000    0.0000 O   0  0  0  0  0  0  0  0  0  0  0  0
    4.5981    0.0000    0.0000 C   0  0  0  0  0  0  0  0  0  0  0  0
    3.7321   -0.5000    0.0000 C   0  0  0  0  0  0  0  0  0  0  0  0
    3.7321   -1.5000    0.0000 C   0  0  0  0  0  0  0  0  0  0  0  0
    4.5981   -2.0000    0.0000 C   0  0  0  0  0  0  0  0  0  0  0  0
    4.5981   -3.0000    0.0000 C   0  0  0  0  0  0  0  0  0  0  0  0
    3.7321   -3.5000    0.0000 C   0  0  0  0  0  0  0  0  0  0  0  0
    2.8660   -3.0000    0.0000 C   0  0  0  0  0  0  0  0  0  0  0  0
    2.8660   -2.0000    0.0000 C   0  0  0  0  0  0  0  0  0  0  0  0
    2.0000   -1.5000    0.0000 C   0  0  0  0  0  0  0  0  0  0  0  0
    3.7321   -4.5000    0.0000 C   0  0  0  0  0  0  0  0  0  0  0  0
    4.5981    1.0000    0.0000 N   0  0  0  0  0  0  0  0  0  0  0  0
    5.4641    1.5000    0.0000 C   0  0  0  0  0  0  0  0  0  0  0  0
    6.3301    1.0000    0.0000 O   0  0  0  0  0  0  0  0  0  0  0  0
    5.4641    2.5000    0.0000 C   0  0  0  0  0  0  0  0  0  0  0  0
    6.3301    3.0000    0.0000 C   0  0  0  0  0  0  0  0  0  0  0  0
    6.3301    4.0000    0.0000 C   0  0  0  0  0  0  0  0  0  0  0  0
    5.4641    4.5000    0.0000 C   0  0  0  0  0  0  0  0  0  0  0  0
    4.5981    4.0000    0.0000 C   0  0  0  0  0  0  0  0  0  0  0  0
    4.5981    3.0000    0.0000 C   0  0  0  0  0  0  0  0  0  0  0  0
    6.8671   -0.3100    0.0000 H   0  0  0  0  0  0  0  0  0  0  0  0
    5.1350    0.3100    0.0000 H   0  0  0  0  0  0  0  0  0  0  0  0
    3.5200    0.0826    0.0000 H   0  0  0  0  0  0  0  0  0  0  0  0
    3.1215   -0.6077    0.0000 H   0  0  0  0  0  0  0  0  0  0  0  0
    5.1350   -1.6900    0.0000 H   0  0  0  0  0  0  0  0  0  0  0  0
    5.1350   -3.3100    0.0000 H   0  0  0  0  0  0  0  0  0  0  0  0
    2.3291   -3.3100    0.0000 H   0  0  0  0  0  0  0  0  0  0  0  0
    2.3100   -0.9631    0.0000 H   0  0  0  0  0  0  0  0  0  0  0  0
    1.4631   -1.1900    0.0000 H   0  0  0  0  0  0  0  0  0  0  0  0
    1.6900   -2.0369    0.0000 H   0  0  0  0  0  0  0  0  0  0  0  0
    3.1121   -4.5000    0.0000 H   0  0  0  0  0  0  0  0  0  0  0  0
    3.7321   -5.1200    0.0000 H   0  0  0  0  0  0  0  0  0  0  0  0
    4.3521   -4.5000    0.0000 H   0  0  0  0  0  0  0  0  0  0  0  0
    4.0611    1.3100    0.0000 H   0  0  0  0  0  0  0  0  0  0  0  0
    6.0010    2.1900    0.0000 H   0  0  0  0  0  0  0  0  0  0  0  0
    6.5422    2.4174    0.0000 H   0  0  0  0  0  0  0  0  0  0  0  0
    6.9407    3.1077    0.0000 H   0  0  0  0  0  0  0  0  0  0  0  0
    6.9407    3.8923    0.0000 H   0  0  0  0  0  0  0  0  0  0  0  0
    6.5422    4.5826    0.0000 H   0  0  0  0  0  0  0  0  0  0  0  0
    5.8626    4.9749    0.0000 H   0  0  0  0  0  0  0  0  0  0  0  0
    5.0656    4.9749    0.0000 H   0  0  0  0  0  0  0  0  0  0  0  0
    4.3860    4.5826    0.0000 H   0  0  0  0  0  0  0  0  0  0  0  0
    3.9875    3.8923    0.0000 H   0  0  0  0  0  0  0  0  0  0  0  0
    3.9875    3.1077    0.0000 H   0  0  0  0  0  0  0  0  0  0  0  0
    4.3860    2.4174    0.0000 H   0  0  0  0  0  0  0  0  0  0  0  0
  1  2  1  0  0  0  0
  2  3  2  0  0  0  0
  2  4  1  0  0  0  0
  4  5  1  0  0  0  0
  5  6  1  0  0  0  0
  6  7  1  0  0  0  0
  7  8  2  0  0  0  0
  8  9  1  0  0  0  0
  9 10  2  0  0  0  0
 10 11  1  0  0  0  0
  6 11  2  0  0  0  0
 11 12  1  0  0  0  0
  9 13  1  0  0  0  0
  4 14  1  0  0  0  0
 14 15  1  0  0  0  0
 15 16  2  0  0  0  0
 15 17  1  0  0  0  0
 17 18  1  0  0  0  0
 18 19  1  0  0  0  0
 19 20  1  0  0  0  0
 20 21  1  0  0  0  0
 21 22  1  0  0  0  0
 17 22  1  0  0  0  0
  1 23  1  0  0  0  0
  4 24  1  0  0  0  0
  5 25  1  0  0  0  0
  5 26  1  0  0  0  0
  7 27  1  0  0  0  0
  8 28  1  0  0  0  0
 10 29  1  0  0  0  0
 12 30  1  0  0  0  0
 12 31  1  0  0  0  0
 12 32  1  0  0  0  0
 13 33  1  0  0  0  0
 13 34  1  0  0  0  0
 13 35  1  0  0  0  0
 14 36  1  0  0  0  0
 17 37  1  0  0  0  0
 18 38  1  0  0  0  0
 18 39  1  0  0  0  0
 19 40  1  0  0  0  0
 19 41  1  0  0  0  0
 20 42  1  0  0  0  0
 20 43  1  0  0  0  0
 21 44  1  0  0  0  0
 21 45  1  0  0  0  0
 22 46  1  0  0  0  0
 22 47  1  0  0  0  0
M  END
> <UNIQUE_SMILES>
CC1=CC(=C(CC(NC(=O)C2CCCCC2)C(O)=O)C=C1)C

> <USER_SUPPLIED_SMILES>
OC(=O)C(Cc1ccc(cc1C)C)NC(=O)C1CCCCC1

$$$$
C18H25NO3
APtclcactv12202015312D 0   0.00000     0.00000    58
 
 47 48  0  0  0  0  0  0  0  0999 V2000
    6.3301    0.0000    0.0000 O   0  0  0  0  0  0  0  0  0  0  0  0
    5.4641   -0.5000    0.0000 C   0  0  0  0  0  0  0  0  0  0  0  0
    5.4641   -1.5000    0.0000 O   0  0  0  0  0  0  0  0  0  0  0  0
    4.5981    0.0000    0.0000 C   0  0  0  0  0  0  0  0  0  0  0  0
    3.7321   -0.5000    0.0000 C   0  0  0  0  0  0  0  0  0  0  0  0
    3.7321   -1.5000    0.0000 C   0  0  0  0  0  0  0  0  0  0  0  0
    4.5981   -2.0000    0.0000 C   0  0  0  0  0  0  0  0  0  0  0  0
    4.5981   -3.0000    0.0000 C   0  0  0  0  0  0  0  0  0  0  0  0
    3.7321   -3.5000    0.0000 C   0  0  0  0  0  0  0  0  0  0  0  0
    2.8660   -3.0000    0.0000 C   0  0  0  0  0  0  0  0  0  0  0  0
    2.8660   -2.0000    0.0000 C   0  0  0  0  0  0  0  0  0  0  0  0
    2.0000   -1.5000    0.0000 C   0  0  0  0  0  0  0  0  0  0  0  0
    3.7321   -4.5000    0.0000 C   0  0  0  0  0  0  0  0  0  0  0  0
    4.5981    1.0000    0.0000 N   0  0  0  0  0  0  0  0  0  0  0  0
    5.4641    1.5000    0.0000 C   0  0  0  0  0  0  0  0  0  0  0  0
    6.3301    1.0000    0.0000 O   0  0  0  0  0  0  0  0  0  0  0  0
    5.4641    2.5000    0.0000 C   0  0  0  0  0  0  0  0  0  0  0  0
    6.3301    3.0000    0.0000 C   0  0  0  0  0  0  0  0  0  0  0  0
    6.3301    4.0000    0.0000 C   0  0  0  0  0  0  0  0  0  0  0  0
    5.4641    4.5000    0.0000 C   0  0  0  0  0  0  0  0  0  0  0  0
    4.5981    4.0000    0.0000 C   0  0  0  0  0  0  0  0  0  0  0  0
    4.5981    3.0000    0.0000 C   0  0  0  0  0  0  0  0  0  0  0  0
    6.8671   -0.3100    0.0000 H   0  0  0  0  0  0  0  0  0  0  0  0
    5.1350    0.3100    0.0000 H   0  0  0  0  0  0  0  0  0  0  0  0
    3.5200    0.0826    0.0000 H   0  0  0  0  0  0  0  0  0  0  0  0
    3.1215   -0.6077    0.0000 H   0  0  0  0  0  0  0  0  0  0  0  0
    5.1350   -1.6900    0.0000 H   0  0  0  0  0  0  0  0  0  0  0  0
    5.1350   -3.3100    0.0000 H   0  0  0  0  0  0  0  0  0  0  0  0
    2.3291   -3.3100    0.0000 H   0  0  0  0  0  0  0  0  0  0  0  0
    2.3100   -0.9631    0.0000 H   0  0  0  0  0  0  0  0  0  0  0  0
    1.4631   -1.1900    0.0000 H   0  0  0  0  0  0  0  0  0  0  0  0
    1.6900   -2.0369    0.0000 H   0  0  0  0  0  0  0  0  0  0  0  0
    3.1121   -4.5000    0.0000 H   0  0  0  0  0  0  0  0  0  0  0  0
    3.7321   -5.1200    0.0000 H   0  0  0  0  0  0  0  0  0  0  0  0
    4.3521   -4.5000    0.0000 H   0  0  0  0  0  0  0  0  0  0  0  0
    4.0611    1.3100    0.0000 H   0  0  0  0  0  0  0  0  0  0  0  0
    6.0010    2.1900    0.0000 H   0  0  0  0  0  0  0  0  0  0  0  0
    6.5422    2.4174    0.0000 H   0  0  0  0  0  0  0  0  0  0  0  0
    6.9407    3.1077    0.0000 H   0  0  0  0  0  0  0  0  0  0  0  0
    6.9407    3.8923    0.0000 H   0  0  0  0  0  0  0  0  0  0  0  0
    6.5422    4.5826    0.0000 H   0  0  0  0  0  0  0  0  0  0  0  0
    5.8626    4.9749    0.0000 H   0  0  0  0  0  0  0  0  0  0  0  0
    5.0656    4.9749    0.0000 H   0  0  0  0  0  0  0  0  0  0  0  0
    4.3860    4.5826    0.0000 H   0  0  0  0  0  0  0  0  0  0  0  0
    3.9875    3.8923    0.0000 H   0  0  0  0  0  0  0  0  0  0  0  0
    3.9875    3.1077    0.0000 H   0  0  0  0  0  0  0  0  0  0  0  0
    4.3860    2.4174    0.0000 H   0  0  0  0  0  0  0  0  0  0  0  0
  1  2  1  0  0  0  0
  2  3  2  0  0  0  0
  2  4  1  0  0  0  0
  4  5  1  0  0  0  0
  5  6  1  0  0  0  0
  6  7  1  0  0  0  0
  7  8  2  0  0  0  0
  8  9  1  0  0  0  0
  9 10  2  0  0  0  0
 10 11  1  0  0  0  0
  6 11  2  0  0  0  0
 11 12  1  0  0  0  0
  9 13  1  0  0  0  0
  4 14  1  0  0  0  0
 14 15  1  0  0  0  0
 15 16  2  0  0  0  0
 15 17  1  0  0  0  0
 17 18  1  0  0  0  0
 18 19  1  0  0  0  0
 19 20  1  0  0  0  0
 20 21  1  0  0  0  0
 21 22  1  0  0  0  0
 17 22  1  0  0  0  0
  1 23  1  0  0  0  0
  4 24  1  0  0  0  0
  5 25  1  0  0  0  0
  5 26  1  0  0  0  0
  7 27  1  0  0  0  0
  8 28  1  0  0  0  0
 10 29  1  0  0  0  0
 12 30  1  0  0  0  0
 12 31  1  0  0  0  0
 12 32  1  0  0  0  0
 13 33  1  0  0  0  0
 13 34  1  0  0  0  0
 13 35  1  0  0  0  0
 14 36  1  0  0  0  0
 17 37  1  0  0  0  0
 18 38  1  0  0  0  0
 18 39  1  0  0  0  0
 19 40  1  0  0  0  0
 19 41  1  0  0  0  0
 20 42  1  0  0  0  0
 20 43  1  0  0  0  0
 21 44  1  0  0  0  0
 21 45  1  0  0  0  0
 22 46  1  0  0  0  0
 22 47  1  0  0  0  0
M  END
> <UNIQUE_SMILES>
CC1=CC(=C(CC(NC(=O)C2CCCCC2)C(O)=O)C=C1)C

> <USER_SUPPLIED_SMILES>
OC(=O)C(Cc1ccc(cc1C)C)NC(=O)C1CCCCC1

$$$$
C18H25NO3
APtclcactv12202015312D 0   0.00000     0.00000    59
 
 47 48  0  0  1  0  0  0  0  0999 V2000
    4.2321    3.0306    0.0000 O   0  0  0  0  0  0  0  0  0  0  0  0
    3.7321    2.1645    0.0000 C   0  0  0  0  0  0  0  0  0  0  0  0
    2.7321    2.1645    0.0000 O   0  0  0  0  0  0  0  0  0  0  0  0
    4.2321    1.2985    0.0000 C   0  0  1  0  0  0  0  0  0  0  0  0
    4.5421    0.7616    0.0000 H   0  0  0  0  0  0  0  0  0  0  0  0
    3.7321    0.4325    0.0000 C   0  0  0  0  0  0  0  0  0  0  0  0
    3.7321   -0.5675    0.0000 C   0  0  0  0  0  0  0  0  0  0  0  0
    2.8660   -1.0675    0.0000 C   0  0  0  0  0  0  0  0  0  0  0  0
    2.0000   -0.5675    0.0000 C   0  0  0  0  0  0  0  0  0  0  0  0
    2.8660   -2.0675    0.0000 C   0  0  0  0  0  0  0  0  0  0  0  0
    3.7321   -2.5675    0.0000 C   0  0  0  0  0  0  0  0  0  0  0  0
    4.5981   -2.0675    0.0000 C   0  0  0  0  0  0  0  0  0  0  0  0
    4.5981   -1.0675    0.0000 C   0  0  0  0  0  0  0  0  0  0  0  0
    5.4641   -0.5675    0.0000 C   0  0  0  0  0  0  0  0  0  0  0  0
    3.7321   -3.5675    0.0000 C   0  0  0  0  0  0  0  0  0  0  0  0
    5.2321    1.2985    0.0000 N   0  0  0  0  0  0  0  0  0  0  0  0
    5.7321    2.1645    0.0000 C   0  0  0  0  0  0  0  0  0  0  0  0
    5.2321    3.0306    0.0000 O   0  0  0  0  0  0  0  0  0  0  0  0
    6.7321    2.1645    0.0000 C   0  0  0  0  0  0  0  0  0  0  0  0
    7.3198    2.9736    0.0000 C   0  0  0  0  0  0  0  0  0  0  0  0
    8.2709    2.6645    0.0000 C   0  0  0  0  0  0  0  0  0  0  0  0
    8.2709    1.6645    0.0000 C   0  0  0  0  0  0  0  0  0  0  0  0
    7.3198    1.3555    0.0000 C   0  0  0  0  0  0  0  0  0  0  0  0
    3.9221    3.5675    0.0000 H   0  0  0  0  0  0  0  0  0  0  0  0
    3.3335    0.9074    0.0000 H   0  0  0  0  0  0  0  0  0  0  0  0
    4.3309    0.2720    0.0000 H   0  0  0  0  0  0  0  0  0  0  0  0
    2.3100   -0.0306    0.0000 H   0  0  0  0  0  0  0  0  0  0  0  0
    1.4631   -0.2575    0.0000 H   0  0  0  0  0  0  0  0  0  0  0  0
    1.6900   -1.1044    0.0000 H   0  0  0  0  0  0  0  0  0  0  0  0
    2.3291   -2.3775    0.0000 H   0  0  0  0  0  0  0  0  0  0  0  0
    5.1350   -2.3775    0.0000 H   0  0  0  0  0  0  0  0  0  0  0  0
    5.7741   -1.1044    0.0000 H   0  0  0  0  0  0  0  0  0  0  0  0
    6.0010   -0.2575    0.0000 H   0  0  0  0  0  0  0  0  0  0  0  0
    5.1541   -0.0306    0.0000 H   0  0  0  0  0  0  0  0  0  0  0  0
    3.1121   -3.5675    0.0000 H   0  0  0  0  0  0  0  0  0  0  0  0
    3.7321   -4.1875    0.0000 H   0  0  0  0  0  0  0  0  0  0  0  0
    4.3521   -3.5675    0.0000 H   0  0  0  0  0  0  0  0  0  0  0  0
    5.5421    0.7616    0.0000 H   0  0  0  0  0  0  0  0  0  0  0  0
    6.4506    2.7170    0.0000 H   0  0  0  0  0  0  0  0  0  0  0  0
    7.5720    3.5400    0.0000 H   0  0  0  0  0  0  0  0  0  0  0  0
    6.7829    3.2836    0.0000 H   0  0  0  0  0  0  0  0  0  0  0  0
    8.8875    2.5997    0.0000 H   0  0  0  0  0  0  0  0  0  0  0  0
    8.3998    3.2710    0.0000 H   0  0  0  0  0  0  0  0  0  0  0  0
    8.3998    1.0581    0.0000 H   0  0  0  0  0  0  0  0  0  0  0  0
    8.8875    1.7294    0.0000 H   0  0  0  0  0  0  0  0  0  0  0  0
    6.7829    1.0455    0.0000 H   0  0  0  0  0  0  0  0  0  0  0  0
    7.5720    0.7891    0.0000 H   0  0  0  0  0  0  0  0  0  0  0  0
  1  2  1  0  0  0  0
  2  3  2  0  0  0  0
  2  4  1  0  0  0  0
  4  5  1  0  0  0  0
  4  6  1  0  0  0  0
  6  7  1  0  0  0  0
  7  8  1  0  0  0  0
  8  9  1  0  0  0  0
  8 10  2  0  0  0  0
 10 11  1  0  0  0  0
 11 12  2  0  0  0  0
 12 13  1  0  0  0  0
  7 13  2  0  0  0  0
 13 14  1  0  0  0  0
 11 15  1  0  0  0  0
  4 16  1  6  0  0  0
 16 17  1  0  0  0  0
 17 18  2  0  0  0  0
 17 19  1  0  0  0  0
 19 20  1  0  0  0  0
 20 21  1  0  0  0  0
 21 22  1  0  0  0  0
 22 23  1  0  0  0  0
 19 23  1  0  0  0  0
  1 24  1  0  0  0  0
  6 25  1  0  0  0  0
  6 26  1  0  0  0  0
  9 27  1  0  0  0  0
  9 28  1  0  0  0  0
  9 29  1  0  0  0  0
 10 30  1  0  0  0  0
 12 31  1  0  0  0  0
 14 32  1  0  0  0  0
 14 33  1  0  0  0  0
 14 34  1  0  0  0  0
 15 35  1  0  0  0  0
 15 36  1  0  0  0  0
 15 37  1  0  0  0  0
 16 38  1  0  0  0  0
 19 39  1  0  0  0  0
 20 40  1  0  0  0  0
 20 41  1  0  0  0  0
 21 42  1  0  0  0  0
 21 43  1  0  0  0  0
 22 44  1  0  0  0  0
 22 45  1  0  0  0  0
 23 46  1  0  0  0  0
 23 47  1  0  0  0  0
M  END
> <UNIQUE_SMILES>
CC1=CC(=C(C[C@@H](NC(=O)C2CCCC2)C(O)=O)C(=C1)C)C

> <USER_SUPPLIED_SMILES>
OC(=O)[C@@H](Cc1c(C)cc(cc1C)C)NC(=O)C1CCCC1

$$$$
C17H23NO3
APtclcactv12202015312D 0   0.00000     0.00000    60
 
 44 45  0  0  0  0  0  0  0  0999 V2000
    3.4030   -4.5000    0.0000 C   0  0  0  0  0  0  0  0  0  0  0  0
    3.4030   -3.5000    0.0000 C   0  0  0  0  0  0  0  0  0  0  0  0
    4.2690   -3.0000    0.0000 C   0  0  0  0  0  0  0  0  0  0  0  0
    4.2690   -2.0000    0.0000 C   0  0  0  0  0  0  0  0  0  0  0  0
    3.4030   -1.5000    0.0000 C   0  0  0  0  0  0  0  0  0  0  0  0
    2.5369   -2.0000    0.0000 C   0  0  0  0  0  0  0  0  0  0  0  0
    2.5369   -3.0000    0.0000 C   0  0  0  0  0  0  0  0  0  0  0  0
    3.4030   -0.5000    0.0000 C   0  0  0  0  0  0  0  0  0  0  0  0
    2.5369    0.0000    0.0000 O   0  0  0  0  0  0  0  0  0  0  0  0
    4.2690    0.0000    0.0000 N   0  0  0  0  0  0  0  0  0  0  0  0
    4.2690    1.0000    0.0000 C   0  0  0  0  0  0  0  0  0  0  0  0
    3.4030    1.5000    0.0000 C   0  0  0  0  0  0  0  0  0  0  0  0
    3.4030    2.5000    0.0000 O   0  0  0  0  0  0  0  0  0  0  0  0
    2.5369    1.0000    0.0000 O   0  0  0  0  0  0  0  0  0  0  0  0
    5.1350    1.5000    0.0000 C   0  0  0  0  0  0  0  0  0  0  0  0
    5.1350    2.5000    0.0000 C   0  0  0  0  0  0  0  0  0  0  0  0
    6.0010    3.0000    0.0000 C   0  0  0  0  0  0  0  0  0  0  0  0
    6.0010    4.0000    0.0000 C   0  0  0  0  0  0  0  0  0  0  0  0
    5.1350    4.5000    0.0000 C   0  0  0  0  0  0  0  0  0  0  0  0
    4.2690    4.0000    0.0000 C   0  0  0  0  0  0  0  0  0  0  0  0
    4.2690    3.0000    0.0000 C   0  0  0  0  0  0  0  0  0  0  0  0
    2.7830   -4.5000    0.0000 H   0  0  0  0  0  0  0  0  0  0  0  0
    3.4030   -5.1200    0.0000 H   0  0  0  0  0  0  0  0  0  0  0  0
    4.0230   -4.5000    0.0000 H   0  0  0  0  0  0  0  0  0  0  0  0
    3.9399   -3.8100    0.0000 H   0  0  0  0  0  0  0  0  0  0  0  0
    4.4810   -3.5826    0.0000 H   0  0  0  0  0  0  0  0  0  0  0  0
    4.8796   -2.8923    0.0000 H   0  0  0  0  0  0  0  0  0  0  0  0
    4.8796   -2.1077    0.0000 H   0  0  0  0  0  0  0  0  0  0  0  0
    4.4810   -1.4174    0.0000 H   0  0  0  0  0  0  0  0  0  0  0  0
    3.9399   -1.1900    0.0000 H   0  0  0  0  0  0  0  0  0  0  0  0
    2.3249   -1.4174    0.0000 H   0  0  0  0  0  0  0  0  0  0  0  0
    1.9264   -2.1077    0.0000 H   0  0  0  0  0  0  0  0  0  0  0  0
    1.9264   -2.8923    0.0000 H   0  0  0  0  0  0  0  0  0  0  0  0
    2.3249   -3.5826    0.0000 H   0  0  0  0  0  0  0  0  0  0  0  0
    4.8059   -0.3100    0.0000 H   0  0  0  0  0  0  0  0  0  0  0  0
    4.8059    0.6900    0.0000 H   0  0  0  0  0  0  0  0  0  0  0  0
    2.0000    1.3100    0.0000 H   0  0  0  0  0  0  0  0  0  0  0  0
    5.3471    0.9174    0.0000 H   0  0  0  0  0  0  0  0  0  0  0  0
    5.7456    1.6077    0.0000 H   0  0  0  0  0  0  0  0  0  0  0  0
    6.5380    2.6900    0.0000 H   0  0  0  0  0  0  0  0  0  0  0  0
    6.5380    4.3100    0.0000 H   0  0  0  0  0  0  0  0  0  0  0  0
    5.1350    5.1200    0.0000 H   0  0  0  0  0  0  0  0  0  0  0  0
    3.7321    4.3100    0.0000 H   0  0  0  0  0  0  0  0  0  0  0  0
    3.7321    2.6900    0.0000 H   0  0  0  0  0  0  0  0  0  0  0  0
  1  2  1  0  0  0  0
  2  3  1  0  0  0  0
  3  4  1  0  0  0  0
  4  5  1  0  0  0  0
  5  6  1  0  0  0  0
  6  7  1  0  0  0  0
  2  7  1  0  0  0  0
  5  8  1  0  0  0  0
  8  9  2  0  0  0  0
  8 10  1  0  0  0  0
 10 11  1  0  0  0  0
 11 12  1  0  0  0  0
 12 13  2  0  0  0  0
 12 14  1  0  0  0  0
 11 15  1  0  0  0  0
 15 16  1  0  0  0  0
 16 17  1  0  0  0  0
 17 18  2  0  0  0  0
 18 19  1  0  0  0  0
 19 20  2  0  0  0  0
 20 21  1  0  0  0  0
 16 21  2  0  0  0  0
  1 22  1  0  0  0  0
  1 23  1  0  0  0  0
  1 24  1  0  0  0  0
  2 25  1  0  0  0  0
  3 26  1  0  0  0  0
  3 27  1  0  0  0  0
  4 28  1  0  0  0  0
  4 29  1  0  0  0  0
  5 30  1  0  0  0  0
  6 31  1  0  0  0  0
  6 32  1  0  0  0  0
  7 33  1  0  0  0  0
  7 34  1  0  0  0  0
 10 35  1  0  0  0  0
 11 36  1  0  0  0  0
 14 37  1  0  0  0  0
 15 38  1  0  0  0  0
 15 39  1  0  0  0  0
 17 40  1  0  0  0  0
 18 41  1  0  0  0  0
 19 42  1  0  0  0  0
 20 43  1  0  0  0  0
 21 44  1  0  0  0  0
M  END
> <UNIQUE_SMILES>
CC1CCC(CC1)C(=O)NC(CC2=CC=CC=C2)C(O)=O

> <USER_SUPPLIED_SMILES>
CC1CCC(CC1)C(=O)NC(C(=O)O)Cc1ccccc1

$$$$
