C10H13NO2
APtclcactv12202015492D 0   0.00000     0.00000     1
 
 26 26  0  0  1  0  0  0  0  0999 V2000
    4.5981   -0.1550    0.0000 C   0  0  0  0  0  0  0  0  0  0  0  0
    3.7321    0.3450    0.0000 C   0  0  1  0  0  0  0  0  0  0  0  0
    3.7321   -0.2750    0.0000 H   0  0  0  0  0  0  0  0  0  0  0  0
    2.8660   -0.1550    0.0000 C   0  0  0  0  0  0  0  0  0  0  0  0
    2.8660   -1.1550    0.0000 C   0  0  0  0  0  0  0  0  0  0  0  0
    2.0000   -1.6550    0.0000 C   0  0  0  0  0  0  0  0  0  0  0  0
    2.0000   -2.6550    0.0000 C   0  0  0  0  0  0  0  0  0  0  0  0
    2.8660   -3.1550    0.0000 C   0  0  0  0  0  0  0  0  0  0  0  0
    3.7321   -2.6550    0.0000 C   0  0  0  0  0  0  0  0  0  0  0  0
    3.7321   -1.6550    0.0000 C   0  0  0  0  0  0  0  0  0  0  0  0
    3.7321    1.3450    0.0000 C   0  0  0  0  0  0  0  0  0  0  0  0
    2.8660    1.8450    0.0000 O   0  0  0  0  0  0  0  0  0  0  0  0
    4.5981    1.8450    0.0000 N   0  0  0  0  0  0  0  0  0  0  0  0
    4.5981    2.8450    0.0000 O   0  0  0  0  0  0  0  0  0  0  0  0
    4.2881   -0.6919    0.0000 H   0  0  0  0  0  0  0  0  0  0  0  0
    5.1350   -0.4650    0.0000 H   0  0  0  0  0  0  0  0  0  0  0  0
    4.9081    0.3819    0.0000 H   0  0  0  0  0  0  0  0  0  0  0  0
    2.6540    0.4276    0.0000 H   0  0  0  0  0  0  0  0  0  0  0  0
    2.2554   -0.2627    0.0000 H   0  0  0  0  0  0  0  0  0  0  0  0
    1.4631   -1.3450    0.0000 H   0  0  0  0  0  0  0  0  0  0  0  0
    1.4631   -2.9650    0.0000 H   0  0  0  0  0  0  0  0  0  0  0  0
    2.8660   -3.7750    0.0000 H   0  0  0  0  0  0  0  0  0  0  0  0
    4.2690   -2.9650    0.0000 H   0  0  0  0  0  0  0  0  0  0  0  0
    4.2690   -1.3450    0.0000 H   0  0  0  0  0  0  0  0  0  0  0  0
    5.1350    1.5350    0.0000 H   0  0  0  0  0  0  0  0  0  0  0  0
    5.1350    3.1550    0.0000 H   0  0  0  0  0  0  0  0  0  0  0  0
  2  1  1  1  0  0  0
  2  3  1  0  0  0  0
  2  4  1  0  0  0  0
  4  5  1  0  0  0  0
  5  6  2  0  0  0  0
  6  7  1  0  0  0  0
  7  8  2  0  0  0  0
  8  9  1  0  0  0  0
  9 10  2  0  0  0  0
  5 10  1  0  0  0  0
  2 11  1  0  0  0  0
 11 12  2  0  0  0  0
 11 13  1  0  0  0  0
 13 14  1  0  0  0  0
  1 15  1  0  0  0  0
  1 16  1  0  0  0  0
  1 17  1  0  0  0  0
  4 18  1  0  0  0  0
  4 19  1  0  0  0  0
  6 20  1  0  0  0  0
  7 21  1  0  0  0  0
  8 22  1  0  0  0  0
  9 23  1  0  0  0  0
 10 24  1  0  0  0  0
 13 25  1  0  0  0  0
 14 26  1  0  0  0  0
M  END
> <UNIQUE_SMILES>
C[C@@H](CC1=CC=CC=C1)C(=O)NO

> <USER_SUPPLIED_SMILES>
C[C@@H](CC1=CC=CC=C1)C(=O)NO

$$$$
C11H13NO3
APtclcactv12202015492D 0   0.00000     0.00000     2
 
 28 28  0  0  1  0  0  0  0  0999 V2000
    2.8660    3.0000    0.0000 C   0  0  0  0  0  0  0  0  0  0  0  0
    2.8660    2.0000    0.0000 C   0  0  0  0  0  0  0  0  0  0  0  0
    3.7321    1.5000    0.0000 C   0  0  2  0  0  0  0  0  0  0  0  0
    3.7321    2.1200    0.0000 H   0  0  0  0  0  0  0  0  0  0  0  0
    3.7321    0.5000    0.0000 C   0  0  0  0  0  0  0  0  0  0  0  0
    2.8660    0.0000    0.0000 C   0  0  0  0  0  0  0  0  0  0  0  0
    2.0000    0.5000    0.0000 O   0  0  0  0  0  0  0  0  0  0  0  0
    2.8660   -1.0000    0.0000 C   0  0  0  0  0  0  0  0  0  0  0  0
    2.0000   -1.5000    0.0000 C   0  0  0  0  0  0  0  0  0  0  0  0
    2.0000   -2.5000    0.0000 C   0  0  0  0  0  0  0  0  0  0  0  0
    2.8660   -3.0000    0.0000 C   0  0  0  0  0  0  0  0  0  0  0  0
    3.7321   -2.5000    0.0000 C   0  0  0  0  0  0  0  0  0  0  0  0
    3.7321   -1.5000    0.0000 C   0  0  0  0  0  0  0  0  0  0  0  0
    4.5981    2.0000    0.0000 N   0  3  0  0  0  0  0  0  0  0  0  0
    4.5981    3.0000    0.0000 O   0  5  0  0  0  0  0  0  0  0  0  0
    5.4641    1.5000    0.0000 O   0  0  0  0  0  0  0  0  0  0  0  0
    3.4860    3.0000    0.0000 H   0  0  0  0  0  0  0  0  0  0  0  0
    2.8660    3.6200    0.0000 H   0  0  0  0  0  0  0  0  0  0  0  0
    2.2460    3.0000    0.0000 H   0  0  0  0  0  0  0  0  0  0  0  0
    2.2554    2.1077    0.0000 H   0  0  0  0  0  0  0  0  0  0  0  0
    2.6540    1.4174    0.0000 H   0  0  0  0  0  0  0  0  0  0  0  0
    3.9441   -0.0826    0.0000 H   0  0  0  0  0  0  0  0  0  0  0  0
    4.3426    0.6077    0.0000 H   0  0  0  0  0  0  0  0  0  0  0  0
    1.4631   -1.1900    0.0000 H   0  0  0  0  0  0  0  0  0  0  0  0
    1.4631   -2.8100    0.0000 H   0  0  0  0  0  0  0  0  0  0  0  0
    2.8660   -3.6200    0.0000 H   0  0  0  0  0  0  0  0  0  0  0  0
    4.2690   -2.8100    0.0000 H   0  0  0  0  0  0  0  0  0  0  0  0
    4.2690   -1.1900    0.0000 H   0  0  0  0  0  0  0  0  0  0  0  0
  1  2  1  0  0  0  0
  2  3  1  0  0  0  0
  3  4  1  0  0  0  0
  3  5  1  0  0  0  0
  5  6  1  0  0  0  0
  6  7  2  0  0  0  0
  6  8  1  0  0  0  0
  8  9  2  0  0  0  0
  9 10  1  0  0  0  0
 10 11  2  0  0  0  0
 11 12  1  0  0  0  0
 12 13  2  0  0  0  0
  8 13  1  0  0  0  0
  3 14  1  1  0  0  0
 14 15  1  0  0  0  0
 14 16  2  0  0  0  0
  1 17  1  0  0  0  0
  1 18  1  0  0  0  0
  1 19  1  0  0  0  0
  2 20  1  0  0  0  0
  2 21  1  0  0  0  0
  5 22  1  0  0  0  0
  5 23  1  0  0  0  0
  9 24  1  0  0  0  0
 10 25  1  0  0  0  0
 11 26  1  0  0  0  0
 12 27  1  0  0  0  0
 13 28  1  0  0  0  0
M  CHG  2  14   1  15  -1
M  END
> <UNIQUE_SMILES>
CC[C@H](CC(=O)C1=CC=CC=C1)[N+]([O-])=O

> <USER_SUPPLIED_SMILES>
CC[C@H](CC(=O)C1=CC=CC=C1)[N+]([O-])=O

$$$$
C11H13NO3
APtclcactv12202015492D 0   0.00000     0.00000     3
 
 28 28  0  0  0  0  0  0  0  0999 V2000
    2.8660    3.0000    0.0000 C   0  0  0  0  0  0  0  0  0  0  0  0
    2.8660    2.0000    0.0000 C   0  0  0  0  0  0  0  0  0  0  0  0
    3.7321    1.5000    0.0000 C   0  0  0  0  0  0  0  0  0  0  0  0
    3.7321    0.5000    0.0000 C   0  0  0  0  0  0  0  0  0  0  0  0
    2.8660    0.0000    0.0000 C   0  0  0  0  0  0  0  0  0  0  0  0
    2.0000    0.5000    0.0000 O   0  0  0  0  0  0  0  0  0  0  0  0
    2.8660   -1.0000    0.0000 C   0  0  0  0  0  0  0  0  0  0  0  0
    2.0000   -1.5000    0.0000 C   0  0  0  0  0  0  0  0  0  0  0  0
    2.0000   -2.5000    0.0000 C   0  0  0  0  0  0  0  0  0  0  0  0
    2.8660   -3.0000    0.0000 C   0  0  0  0  0  0  0  0  0  0  0  0
    3.7321   -2.5000    0.0000 C   0  0  0  0  0  0  0  0  0  0  0  0
    3.7321   -1.5000    0.0000 C   0  0  0  0  0  0  0  0  0  0  0  0
    4.5981    2.0000    0.0000 N   0  3  0  0  0  0  0  0  0  0  0  0
    4.5981    3.0000    0.0000 O   0  5  0  0  0  0  0  0  0  0  0  0
    5.4641    1.5000    0.0000 O   0  0  0  0  0  0  0  0  0  0  0  0
    3.4860    3.0000    0.0000 H   0  0  0  0  0  0  0  0  0  0  0  0
    2.8660    3.6200    0.0000 H   0  0  0  0  0  0  0  0  0  0  0  0
    2.2460    3.0000    0.0000 H   0  0  0  0  0  0  0  0  0  0  0  0
    2.2554    2.1077    0.0000 H   0  0  0  0  0  0  0  0  0  0  0  0
    2.6540    1.4174    0.0000 H   0  0  0  0  0  0  0  0  0  0  0  0
    3.7321    2.1200    0.0000 H   0  0  0  0  0  0  0  0  0  0  0  0
    3.9441   -0.0826    0.0000 H   0  0  0  0  0  0  0  0  0  0  0  0
    4.3426    0.6077    0.0000 H   0  0  0  0  0  0  0  0  0  0  0  0
    1.4631   -1.1900    0.0000 H   0  0  0  0  0  0  0  0  0  0  0  0
    1.4631   -2.8100    0.0000 H   0  0  0  0  0  0  0  0  0  0  0  0
    2.8660   -3.6200    0.0000 H   0  0  0  0  0  0  0  0  0  0  0  0
    4.2690   -2.8100    0.0000 H   0  0  0  0  0  0  0  0  0  0  0  0
    4.2690   -1.1900    0.0000 H   0  0  0  0  0  0  0  0  0  0  0  0
  1  2  1  0  0  0  0
  2  3  1  0  0  0  0
  3  4  1  0  0  0  0
  4  5  1  0  0  0  0
  5  6  2  0  0  0  0
  5  7  1  0  0  0  0
  7  8  2  0  0  0  0
  8  9  1  0  0  0  0
  9 10  2  0  0  0  0
 10 11  1  0  0  0  0
 11 12  2  0  0  0  0
  7 12  1  0  0  0  0
  3 13  1  0  0  0  0
 13 14  1  0  0  0  0
 13 15  2  0  0  0  0
  1 16  1  0  0  0  0
  1 17  1  0  0  0  0
  1 18  1  0  0  0  0
  2 19  1  0  0  0  0
  2 20  1  0  0  0  0
  3 21  1  0  0  0  0
  4 22  1  0  0  0  0
  4 23  1  0  0  0  0
  8 24  1  0  0  0  0
  9 25  1  0  0  0  0
 10 26  1  0  0  0  0
 11 27  1  0  0  0  0
 12 28  1  0  0  0  0
M  CHG  2  13   1  14  -1
M  END
> <UNIQUE_SMILES>
CCC(CC(=O)C1=CC=CC=C1)[N+]([O-])=O

> <USER_SUPPLIED_SMILES>
CCC(CC(=O)C1=CC=CC=C1)[N+]([O-])=O

$$$$
C12H15NO3
APtclcactv12202015492D 0   0.00000     0.00000     4
 
 31 31  0  0  1  0  0  0  0  0999 V2000
    4.5981    3.0000    0.0000 C   0  0  0  0  0  0  0  0  0  0  0  0
    4.5981    2.0000    0.0000 C   0  0  0  0  0  0  0  0  0  0  0  0
    5.4641    1.5000    0.0000 C   0  0  0  0  0  0  0  0  0  0  0  0
    3.7321    1.5000    0.0000 C   0  0  1  0  0  0  0  0  0  0  0  0
    3.7321    2.1200    0.0000 H   0  0  0  0  0  0  0  0  0  0  0  0
    3.7321    0.5000    0.0000 C   0  0  0  0  0  0  0  0  0  0  0  0
    2.8660    0.0000    0.0000 C   0  0  0  0  0  0  0  0  0  0  0  0
    2.0000    0.5000    0.0000 O   0  0  0  0  0  0  0  0  0  0  0  0
    2.8660   -1.0000    0.0000 C   0  0  0  0  0  0  0  0  0  0  0  0
    2.0000   -1.5000    0.0000 C   0  0  0  0  0  0  0  0  0  0  0  0
    2.0000   -2.5000    0.0000 C   0  0  0  0  0  0  0  0  0  0  0  0
    2.8660   -3.0000    0.0000 C   0  0  0  0  0  0  0  0  0  0  0  0
    3.7321   -2.5000    0.0000 C   0  0  0  0  0  0  0  0  0  0  0  0
    3.7321   -1.5000    0.0000 C   0  0  0  0  0  0  0  0  0  0  0  0
    2.8660    2.0000    0.0000 N   0  3  0  0  0  0  0  0  0  0  0  0
    2.8660    3.0000    0.0000 O   0  5  0  0  0  0  0  0  0  0  0  0
    2.0000    1.5000    0.0000 O   0  0  0  0  0  0  0  0  0  0  0  0
    5.2181    3.0000    0.0000 H   0  0  0  0  0  0  0  0  0  0  0  0
    4.5981    3.6200    0.0000 H   0  0  0  0  0  0  0  0  0  0  0  0
    3.9781    3.0000    0.0000 H   0  0  0  0  0  0  0  0  0  0  0  0
    4.5981    1.3800    0.0000 H   0  0  0  0  0  0  0  0  0  0  0  0
    5.1541    0.9631    0.0000 H   0  0  0  0  0  0  0  0  0  0  0  0
    6.0010    1.1900    0.0000 H   0  0  0  0  0  0  0  0  0  0  0  0
    5.7741    2.0369    0.0000 H   0  0  0  0  0  0  0  0  0  0  0  0
    3.9441   -0.0826    0.0000 H   0  0  0  0  0  0  0  0  0  0  0  0
    4.3426    0.6077    0.0000 H   0  0  0  0  0  0  0  0  0  0  0  0
    1.4631   -1.1900    0.0000 H   0  0  0  0  0  0  0  0  0  0  0  0
    1.4631   -2.8100    0.0000 H   0  0  0  0  0  0  0  0  0  0  0  0
    2.8660   -3.6200    0.0000 H   0  0  0  0  0  0  0  0  0  0  0  0
    4.2690   -2.8100    0.0000 H   0  0  0  0  0  0  0  0  0  0  0  0
    4.2690   -1.1900    0.0000 H   0  0  0  0  0  0  0  0  0  0  0  0
  1  2  1  0  0  0  0
  2  3  1  0  0  0  0
  2  4  1  0  0  0  0
  4  5  1  0  0  0  0
  4  6  1  0  0  0  0
  6  7  1  0  0  0  0
  7  8  2  0  0  0  0
  7  9  1  0  0  0  0
  9 10  2  0  0  0  0
 10 11  1  0  0  0  0
 11 12  2  0  0  0  0
 12 13  1  0  0  0  0
 13 14  2  0  0  0  0
  9 14  1  0  0  0  0
  4 15  1  1  0  0  0
 15 16  1  0  0  0  0
 15 17  2  0  0  0  0
  1 18  1  0  0  0  0
  1 19  1  0  0  0  0
  1 20  1  0  0  0  0
  2 21  1  0  0  0  0
  3 22  1  0  0  0  0
  3 23  1  0  0  0  0
  3 24  1  0  0  0  0
  6 25  1  0  0  0  0
  6 26  1  0  0  0  0
 10 27  1  0  0  0  0
 11 28  1  0  0  0  0
 12 29  1  0  0  0  0
 13 30  1  0  0  0  0
 14 31  1  0  0  0  0
M  CHG  2  15   1  16  -1
M  END
> <UNIQUE_SMILES>
CC(C)[C@@H](CC(=O)C1=CC=CC=C1)[N+]([O-])=O

> <USER_SUPPLIED_SMILES>
CC(C)[C@@H](CC(=O)C1=CC=CC=C1)[N+]([O-])=O

$$$$
C12H15NO3
APtclcactv12202015492D 0   0.00000     0.00000     5
 
 31 31  0  0  1  0  0  0  0  0999 V2000
    4.5981    3.0000    0.0000 C   0  0  0  0  0  0  0  0  0  0  0  0
    4.5981    2.0000    0.0000 C   0  0  0  0  0  0  0  0  0  0  0  0
    5.4641    1.5000    0.0000 C   0  0  0  0  0  0  0  0  0  0  0  0
    3.7321    1.5000    0.0000 C   0  0  2  0  0  0  0  0  0  0  0  0
    3.7321    2.1200    0.0000 H   0  0  0  0  0  0  0  0  0  0  0  0
    3.7321    0.5000    0.0000 C   0  0  0  0  0  0  0  0  0  0  0  0
    2.8660    0.0000    0.0000 C   0  0  0  0  0  0  0  0  0  0  0  0
    2.0000    0.5000    0.0000 O   0  0  0  0  0  0  0  0  0  0  0  0
    2.8660   -1.0000    0.0000 C   0  0  0  0  0  0  0  0  0  0  0  0
    2.0000   -1.5000    0.0000 C   0  0  0  0  0  0  0  0  0  0  0  0
    2.0000   -2.5000    0.0000 C   0  0  0  0  0  0  0  0  0  0  0  0
    2.8660   -3.0000    0.0000 C   0  0  0  0  0  0  0  0  0  0  0  0
    3.7321   -2.5000    0.0000 C   0  0  0  0  0  0  0  0  0  0  0  0
    3.7321   -1.5000    0.0000 C   0  0  0  0  0  0  0  0  0  0  0  0
    2.8660    2.0000    0.0000 N   0  3  0  0  0  0  0  0  0  0  0  0
    2.8660    3.0000    0.0000 O   0  5  0  0  0  0  0  0  0  0  0  0
    2.0000    1.5000    0.0000 O   0  0  0  0  0  0  0  0  0  0  0  0
    5.2181    3.0000    0.0000 H   0  0  0  0  0  0  0  0  0  0  0  0
    4.5981    3.6200    0.0000 H   0  0  0  0  0  0  0  0  0  0  0  0
    3.9781    3.0000    0.0000 H   0  0  0  0  0  0  0  0  0  0  0  0
    4.5981    1.3800    0.0000 H   0  0  0  0  0  0  0  0  0  0  0  0
    5.1541    0.9631    0.0000 H   0  0  0  0  0  0  0  0  0  0  0  0
    6.0010    1.1900    0.0000 H   0  0  0  0  0  0  0  0  0  0  0  0
    5.7741    2.0369    0.0000 H   0  0  0  0  0  0  0  0  0  0  0  0
    3.9441   -0.0826    0.0000 H   0  0  0  0  0  0  0  0  0  0  0  0
    4.3426    0.6077    0.0000 H   0  0  0  0  0  0  0  0  0  0  0  0
    1.4631   -1.1900    0.0000 H   0  0  0  0  0  0  0  0  0  0  0  0
    1.4631   -2.8100    0.0000 H   0  0  0  0  0  0  0  0  0  0  0  0
    2.8660   -3.6200    0.0000 H   0  0  0  0  0  0  0  0  0  0  0  0
    4.2690   -2.8100    0.0000 H   0  0  0  0  0  0  0  0  0  0  0  0
    4.2690   -1.1900    0.0000 H   0  0  0  0  0  0  0  0  0  0  0  0
  1  2  1  0  0  0  0
  2  3  1  0  0  0  0
  2  4  1  0  0  0  0
  4  5  1  0  0  0  0
  4  6  1  0  0  0  0
  6  7  1  0  0  0  0
  7  8  2  0  0  0  0
  7  9  1  0  0  0  0
  9 10  2  0  0  0  0
 10 11  1  0  0  0  0
 11 12  2  0  0  0  0
 12 13  1  0  0  0  0
 13 14  2  0  0  0  0
  9 14  1  0  0  0  0
  4 15  1  6  0  0  0
 15 16  1  0  0  0  0
 15 17  2  0  0  0  0
  1 18  1  0  0  0  0
  1 19  1  0  0  0  0
  1 20  1  0  0  0  0
  2 21  1  0  0  0  0
  3 22  1  0  0  0  0
  3 23  1  0  0  0  0
  3 24  1  0  0  0  0
  6 25  1  0  0  0  0
  6 26  1  0  0  0  0
 10 27  1  0  0  0  0
 11 28  1  0  0  0  0
 12 29  1  0  0  0  0
 13 30  1  0  0  0  0
 14 31  1  0  0  0  0
M  CHG  2  15   1  16  -1
M  END
> <UNIQUE_SMILES>
CC(C)[C@H](CC(=O)C1=CC=CC=C1)[N+]([O-])=O

> <USER_SUPPLIED_SMILES>
CC(C)[C@H](CC(=O)C1=CC=CC=C1)[N+]([O-])=O

$$$$
C15H15NO2
APtclcactv12202015492D 0   0.00000     0.00000     6
 
 33 34  0  0  0  0  0  0  0  0999 V2000
    2.5369    2.8450    0.0000 O   0  0  0  0  0  0  0  0  0  0  0  0
    2.5369    1.8450    0.0000 N   0  0  0  0  0  0  0  0  0  0  0  0
    3.4030    1.3450    0.0000 C   0  0  0  0  0  0  0  0  0  0  0  0
    4.2690    1.8450    0.0000 O   0  0  0  0  0  0  0  0  0  0  0  0
    3.4030    0.3450    0.0000 C   0  0  0  0  0  0  0  0  0  0  0  0
    4.2690   -0.1550    0.0000 C   0  0  0  0  0  0  0  0  0  0  0  0
    4.2690   -1.1550    0.0000 C   0  0  0  0  0  0  0  0  0  0  0  0
    3.4030   -1.6550    0.0000 C   0  0  0  0  0  0  0  0  0  0  0  0
    3.4030   -2.6550    0.0000 C   0  0  0  0  0  0  0  0  0  0  0  0
    4.2690   -3.1550    0.0000 C   0  0  0  0  0  0  0  0  0  0  0  0
    5.1350   -2.6550    0.0000 C   0  0  0  0  0  0  0  0  0  0  0  0
    5.1350   -1.6550    0.0000 C   0  0  0  0  0  0  0  0  0  0  0  0
    5.1350    0.3450    0.0000 C   0  0  0  0  0  0  0  0  0  0  0  0
    6.0010   -0.1550    0.0000 C   0  0  0  0  0  0  0  0  0  0  0  0
    6.8671    0.3450    0.0000 C   0  0  0  0  0  0  0  0  0  0  0  0
    6.8671    1.3450    0.0000 C   0  0  0  0  0  0  0  0  0  0  0  0
    6.0010    1.8450    0.0000 C   0  0  0  0  0  0  0  0  0  0  0  0
    5.1350    1.3450    0.0000 C   0  0  0  0  0  0  0  0  0  0  0  0
    2.0000    3.1550    0.0000 H   0  0  0  0  0  0  0  0  0  0  0  0
    2.0000    1.5350    0.0000 H   0  0  0  0  0  0  0  0  0  0  0  0
    2.7924    0.4527    0.0000 H   0  0  0  0  0  0  0  0  0  0  0  0
    3.1909   -0.2376    0.0000 H   0  0  0  0  0  0  0  0  0  0  0  0
    4.2690    0.4650    0.0000 H   0  0  0  0  0  0  0  0  0  0  0  0
    2.8660   -1.3450    0.0000 H   0  0  0  0  0  0  0  0  0  0  0  0
    2.8660   -2.9650    0.0000 H   0  0  0  0  0  0  0  0  0  0  0  0
    4.2690   -3.7750    0.0000 H   0  0  0  0  0  0  0  0  0  0  0  0
    5.6719   -2.9650    0.0000 H   0  0  0  0  0  0  0  0  0  0  0  0
    5.6719   -1.3450    0.0000 H   0  0  0  0  0  0  0  0  0  0  0  0
    6.0010   -0.7750    0.0000 H   0  0  0  0  0  0  0  0  0  0  0  0
    7.4040    0.0350    0.0000 H   0  0  0  0  0  0  0  0  0  0  0  0
    7.4040    1.6550    0.0000 H   0  0  0  0  0  0  0  0  0  0  0  0
    6.0010    2.4650    0.0000 H   0  0  0  0  0  0  0  0  0  0  0  0
    4.5981    1.6550    0.0000 H   0  0  0  0  0  0  0  0  0  0  0  0
  1  2  1  0  0  0  0
  2  3  1  0  0  0  0
  3  4  2  0  0  0  0
  3  5  1  0  0  0  0
  5  6  1  0  0  0  0
  6  7  1  0  0  0  0
  7  8  2  0  0  0  0
  8  9  1  0  0  0  0
  9 10  2  0  0  0  0
 10 11  1  0  0  0  0
 11 12  2  0  0  0  0
  7 12  1  0  0  0  0
  6 13  1  0  0  0  0
 13 14  2  0  0  0  0
 14 15  1  0  0  0  0
 15 16  2  0  0  0  0
 16 17  1  0  0  0  0
 17 18  2  0  0  0  0
 13 18  1  0  0  0  0
  1 19  1  0  0  0  0
  2 20  1  0  0  0  0
  5 21  1  0  0  0  0
  5 22  1  0  0  0  0
  6 23  1  0  0  0  0
  8 24  1  0  0  0  0
  9 25  1  0  0  0  0
 10 26  1  0  0  0  0
 11 27  1  0  0  0  0
 12 28  1  0  0  0  0
 14 29  1  0  0  0  0
 15 30  1  0  0  0  0
 16 31  1  0  0  0  0
 17 32  1  0  0  0  0
 18 33  1  0  0  0  0
M  END
> <UNIQUE_SMILES>
ONC(=O)CC(C1=CC=CC=C1)C2=CC=CC=C2

> <USER_SUPPLIED_SMILES>
ONC(=O)CC(C1=CC=CC=C1)C2=CC=CC=C2

$$$$
C10H13NO2
APtclcactv12202015492D 0   0.00000     0.00000     7
 
 26 26  0  0  0  0  0  0  0  0999 V2000
    4.5981   -0.1550    0.0000 C   0  0  0  0  0  0  0  0  0  0  0  0
    3.7321    0.3450    0.0000 C   0  0  0  0  0  0  0  0  0  0  0  0
    2.8660   -0.1550    0.0000 C   0  0  0  0  0  0  0  0  0  0  0  0
    2.8660   -1.1550    0.0000 C   0  0  0  0  0  0  0  0  0  0  0  0
    2.0000   -1.6550    0.0000 C   0  0  0  0  0  0  0  0  0  0  0  0
    2.0000   -2.6550    0.0000 C   0  0  0  0  0  0  0  0  0  0  0  0
    2.8660   -3.1550    0.0000 C   0  0  0  0  0  0  0  0  0  0  0  0
    3.7321   -2.6550    0.0000 C   0  0  0  0  0  0  0  0  0  0  0  0
    3.7321   -1.6550    0.0000 C   0  0  0  0  0  0  0  0  0  0  0  0
    3.7321    1.3450    0.0000 C   0  0  0  0  0  0  0  0  0  0  0  0
    2.8660    1.8450    0.0000 O   0  0  0  0  0  0  0  0  0  0  0  0
    4.5981    1.8450    0.0000 N   0  0  0  0  0  0  0  0  0  0  0  0
    4.5981    2.8450    0.0000 O   0  0  0  0  0  0  0  0  0  0  0  0
    4.2881   -0.6919    0.0000 H   0  0  0  0  0  0  0  0  0  0  0  0
    5.1350   -0.4650    0.0000 H   0  0  0  0  0  0  0  0  0  0  0  0
    4.9081    0.3819    0.0000 H   0  0  0  0  0  0  0  0  0  0  0  0
    3.7321   -0.2750    0.0000 H   0  0  0  0  0  0  0  0  0  0  0  0
    2.6540    0.4276    0.0000 H   0  0  0  0  0  0  0  0  0  0  0  0
    2.2554   -0.2627    0.0000 H   0  0  0  0  0  0  0  0  0  0  0  0
    1.4631   -1.3450    0.0000 H   0  0  0  0  0  0  0  0  0  0  0  0
    1.4631   -2.9650    0.0000 H   0  0  0  0  0  0  0  0  0  0  0  0
    2.8660   -3.7750    0.0000 H   0  0  0  0  0  0  0  0  0  0  0  0
    4.2690   -2.9650    0.0000 H   0  0  0  0  0  0  0  0  0  0  0  0
    4.2690   -1.3450    0.0000 H   0  0  0  0  0  0  0  0  0  0  0  0
    5.1350    1.5350    0.0000 H   0  0  0  0  0  0  0  0  0  0  0  0
    5.1350    3.1550    0.0000 H   0  0  0  0  0  0  0  0  0  0  0  0
  1  2  1  0  0  0  0
  2  3  1  0  0  0  0
  3  4  1  0  0  0  0
  4  5  2  0  0  0  0
  5  6  1  0  0  0  0
  6  7  2  0  0  0  0
  7  8  1  0  0  0  0
  8  9  2  0  0  0  0
  4  9  1  0  0  0  0
  2 10  1  0  0  0  0
 10 11  2  0  0  0  0
 10 12  1  0  0  0  0
 12 13  1  0  0  0  0
  1 14  1  0  0  0  0
  1 15  1  0  0  0  0
  1 16  1  0  0  0  0
  2 17  1  0  0  0  0
  3 18  1  0  0  0  0
  3 19  1  0  0  0  0
  5 20  1  0  0  0  0
  6 21  1  0  0  0  0
  7 22  1  0  0  0  0
  8 23  1  0  0  0  0
  9 24  1  0  0  0  0
 12 25  1  0  0  0  0
 13 26  1  0  0  0  0
M  END
> <UNIQUE_SMILES>
CC(CC1=CC=CC=C1)C(=O)NO

> <USER_SUPPLIED_SMILES>
CC(CC1=CC=CC=C1)C(=O)NO

$$$$
C18H25NO3
APtclcactv12202015492D 0   0.00000     0.00000     8
 
 47 48  0  0  1  0  0  0  0  0999 V2000
    3.7321   -3.5675    0.0000 C   0  0  0  0  0  0  0  0  0  0  0  0
    3.7321   -2.5675    0.0000 C   0  0  0  0  0  0  0  0  0  0  0  0
    4.5981   -2.0675    0.0000 C   0  0  0  0  0  0  0  0  0  0  0  0
    4.5981   -1.0675    0.0000 C   0  0  0  0  0  0  0  0  0  0  0  0
    3.7321   -0.5675    0.0000 C   0  0  0  0  0  0  0  0  0  0  0  0
    3.7321    0.4325    0.0000 C   0  0  0  0  0  0  0  0  0  0  0  0
    4.2321    1.2985    0.0000 C   0  0  2  0  0  0  0  0  0  0  0  0
    4.5421    0.7616    0.0000 H   0  0  0  0  0  0  0  0  0  0  0  0
    5.2321    1.2985    0.0000 N   0  0  0  0  0  0  0  0  0  0  0  0
    5.7321    2.1645    0.0000 C   0  0  0  0  0  0  0  0  0  0  0  0
    5.2321    3.0306    0.0000 O   0  0  0  0  0  0  0  0  0  0  0  0
    6.7321    2.1645    0.0000 C   0  0  0  0  0  0  0  0  0  0  0  0
    7.3198    2.9736    0.0000 C   0  0  0  0  0  0  0  0  0  0  0  0
    8.2709    2.6645    0.0000 C   0  0  0  0  0  0  0  0  0  0  0  0
    8.2709    1.6645    0.0000 C   0  0  0  0  0  0  0  0  0  0  0  0
    7.3198    1.3555    0.0000 C   0  0  0  0  0  0  0  0  0  0  0  0
    3.7321    2.1645    0.0000 C   0  0  0  0  0  0  0  0  0  0  0  0
    4.2321    3.0306    0.0000 O   0  0  0  0  0  0  0  0  0  0  0  0
    2.7321    2.1645    0.0000 O   0  0  0  0  0  0  0  0  0  0  0  0
    2.8660   -1.0675    0.0000 C   0  0  0  0  0  0  0  0  0  0  0  0
    2.8660   -2.0675    0.0000 C   0  0  0  0  0  0  0  0  0  0  0  0
    2.0000   -0.5675    0.0000 C   0  0  0  0  0  0  0  0  0  0  0  0
    5.4641   -0.5675    0.0000 C   0  0  0  0  0  0  0  0  0  0  0  0
    3.1121   -3.5675    0.0000 H   0  0  0  0  0  0  0  0  0  0  0  0
    3.7321   -4.1875    0.0000 H   0  0  0  0  0  0  0  0  0  0  0  0
    4.3521   -3.5675    0.0000 H   0  0  0  0  0  0  0  0  0  0  0  0
    5.1350   -2.3775    0.0000 H   0  0  0  0  0  0  0  0  0  0  0  0
    3.3335    0.9074    0.0000 H   0  0  0  0  0  0  0  0  0  0  0  0
    4.3309    0.2720    0.0000 H   0  0  0  0  0  0  0  0  0  0  0  0
    5.5421    0.7616    0.0000 H   0  0  0  0  0  0  0  0  0  0  0  0
    6.4506    2.7170    0.0000 H   0  0  0  0  0  0  0  0  0  0  0  0
    7.5720    3.5400    0.0000 H   0  0  0  0  0  0  0  0  0  0  0  0
    6.7829    3.2836    0.0000 H   0  0  0  0  0  0  0  0  0  0  0  0
    8.8875    2.5997    0.0000 H   0  0  0  0  0  0  0  0  0  0  0  0
    8.3998    3.2710    0.0000 H   0  0  0  0  0  0  0  0  0  0  0  0
    8.3998    1.0581    0.0000 H   0  0  0  0  0  0  0  0  0  0  0  0
    8.8875    1.7294    0.0000 H   0  0  0  0  0  0  0  0  0  0  0  0
    6.7829    1.0455    0.0000 H   0  0  0  0  0  0  0  0  0  0  0  0
    7.5720    0.7891    0.0000 H   0  0  0  0  0  0  0  0  0  0  0  0
    3.9221    3.5675    0.0000 H   0  0  0  0  0  0  0  0  0  0  0  0
    2.3291   -2.3775    0.0000 H   0  0  0  0  0  0  0  0  0  0  0  0
    2.3100   -0.0306    0.0000 H   0  0  0  0  0  0  0  0  0  0  0  0
    1.4631   -0.2575    0.0000 H   0  0  0  0  0  0  0  0  0  0  0  0
    1.6900   -1.1044    0.0000 H   0  0  0  0  0  0  0  0  0  0  0  0
    5.7741   -1.1044    0.0000 H   0  0  0  0  0  0  0  0  0  0  0  0
    6.0010   -0.2575    0.0000 H   0  0  0  0  0  0  0  0  0  0  0  0
    5.1541   -0.0306    0.0000 H   0  0  0  0  0  0  0  0  0  0  0  0
  1  2  1  0  0  0  0
  2  3  2  0  0  0  0
  3  4  1  0  0  0  0
  4  5  2  0  0  0  0
  5  6  1  0  0  0  0
  6  7  1  0  0  0  0
  7  8  1  0  0  0  0
  7  9  1  1  0  0  0
  9 10  1  0  0  0  0
 10 11  2  0  0  0  0
 10 12  1  0  0  0  0
 12 13  1  0  0  0  0
 13 14  1  0  0  0  0
 14 15  1  0  0  0  0
 15 16  1  0  0  0  0
 12 16  1  0  0  0  0
  7 17  1  0  0  0  0
 17 18  1  0  0  0  0
 17 19  2  0  0  0  0
  5 20  1  0  0  0  0
 20 21  2  0  0  0  0
  2 21  1  0  0  0  0
 20 22  1  0  0  0  0
  4 23  1  0  0  0  0
  1 24  1  0  0  0  0
  1 25  1  0  0  0  0
  1 26  1  0  0  0  0
  3 27  1  0  0  0  0
  6 28  1  0  0  0  0
  6 29  1  0  0  0  0
  9 30  1  0  0  0  0
 12 31  1  0  0  0  0
 13 32  1  0  0  0  0
 13 33  1  0  0  0  0
 14 34  1  0  0  0  0
 14 35  1  0  0  0  0
 15 36  1  0  0  0  0
 15 37  1  0  0  0  0
 16 38  1  0  0  0  0
 16 39  1  0  0  0  0
 18 40  1  0  0  0  0
 21 41  1  0  0  0  0
 22 42  1  0  0  0  0
 22 43  1  0  0  0  0
 22 44  1  0  0  0  0
 23 45  1  0  0  0  0
 23 46  1  0  0  0  0
 23 47  1  0  0  0  0
M  END
> <UNIQUE_SMILES>
CC1=CC(=C(C[C@H](NC(=O)C2CCCC2)C(O)=O)C(=C1)C)C

> <USER_SUPPLIED_SMILES>
CC1=CC(=C(C[C@H](NC(=O)C2CCCC2)C(O)=O)C(=C1)C)C

$$$$
C18H25NO3
APtclcactv12202015492D 0   0.00000     0.00000     9
 
 47 48  0  0  1  0  0  0  0  0999 V2000
    3.7321   -3.5675    0.0000 C   0  0  0  0  0  0  0  0  0  0  0  0
    3.7321   -2.5675    0.0000 C   0  0  0  0  0  0  0  0  0  0  0  0
    4.5981   -2.0675    0.0000 C   0  0  0  0  0  0  0  0  0  0  0  0
    4.5981   -1.0675    0.0000 C   0  0  0  0  0  0  0  0  0  0  0  0
    3.7321   -0.5675    0.0000 C   0  0  0  0  0  0  0  0  0  0  0  0
    3.7321    0.4325    0.0000 C   0  0  0  0  0  0  0  0  0  0  0  0
    4.2321    1.2985    0.0000 C   0  0  1  0  0  0  0  0  0  0  0  0
    4.5421    0.7616    0.0000 H   0  0  0  0  0  0  0  0  0  0  0  0
    5.2321    1.2985    0.0000 N   0  0  0  0  0  0  0  0  0  0  0  0
    5.7321    2.1645    0.0000 C   0  0  0  0  0  0  0  0  0  0  0  0
    5.2321    3.0306    0.0000 O   0  0  0  0  0  0  0  0  0  0  0  0
    6.7321    2.1645    0.0000 C   0  0  0  0  0  0  0  0  0  0  0  0
    7.3198    2.9736    0.0000 C   0  0  0  0  0  0  0  0  0  0  0  0
    8.2709    2.6645    0.0000 C   0  0  0  0  0  0  0  0  0  0  0  0
    8.2709    1.6645    0.0000 C   0  0  0  0  0  0  0  0  0  0  0  0
    7.3198    1.3555    0.0000 C   0  0  0  0  0  0  0  0  0  0  0  0
    3.7321    2.1645    0.0000 C   0  0  0  0  0  0  0  0  0  0  0  0
    4.2321    3.0306    0.0000 O   0  0  0  0  0  0  0  0  0  0  0  0
    2.7321    2.1645    0.0000 O   0  0  0  0  0  0  0  0  0  0  0  0
    2.8660   -1.0675    0.0000 C   0  0  0  0  0  0  0  0  0  0  0  0
    2.8660   -2.0675    0.0000 C   0  0  0  0  0  0  0  0  0  0  0  0
    2.0000   -0.5675    0.0000 C   0  0  0  0  0  0  0  0  0  0  0  0
    5.4641   -0.5675    0.0000 C   0  0  0  0  0  0  0  0  0  0  0  0
    3.1121   -3.5675    0.0000 H   0  0  0  0  0  0  0  0  0  0  0  0
    3.7321   -4.1875    0.0000 H   0  0  0  0  0  0  0  0  0  0  0  0
    4.3521   -3.5675    0.0000 H   0  0  0  0  0  0  0  0  0  0  0  0
    5.1350   -2.3775    0.0000 H   0  0  0  0  0  0  0  0  0  0  0  0
    3.3335    0.9074    0.0000 H   0  0  0  0  0  0  0  0  0  0  0  0
    4.3309    0.2720    0.0000 H   0  0  0  0  0  0  0  0  0  0  0  0
    5.5421    0.7616    0.0000 H   0  0  0  0  0  0  0  0  0  0  0  0
    6.4506    2.7170    0.0000 H   0  0  0  0  0  0  0  0  0  0  0  0
    7.5720    3.5400    0.0000 H   0  0  0  0  0  0  0  0  0  0  0  0
    6.7829    3.2836    0.0000 H   0  0  0  0  0  0  0  0  0  0  0  0
    8.8875    2.5997    0.0000 H   0  0  0  0  0  0  0  0  0  0  0  0
    8.3998    3.2710    0.0000 H   0  0  0  0  0  0  0  0  0  0  0  0
    8.3998    1.0581    0.0000 H   0  0  0  0  0  0  0  0  0  0  0  0
    8.8875    1.7294    0.0000 H   0  0  0  0  0  0  0  0  0  0  0  0
    6.7829    1.0455    0.0000 H   0  0  0  0  0  0  0  0  0  0  0  0
    7.5720    0.7891    0.0000 H   0  0  0  0  0  0  0  0  0  0  0  0
    3.9221    3.5675    0.0000 H   0  0  0  0  0  0  0  0  0  0  0  0
    2.3291   -2.3775    0.0000 H   0  0  0  0  0  0  0  0  0  0  0  0
    2.3100   -0.0306    0.0000 H   0  0  0  0  0  0  0  0  0  0  0  0
    1.4631   -0.2575    0.0000 H   0  0  0  0  0  0  0  0  0  0  0  0
    1.6900   -1.1044    0.0000 H   0  0  0  0  0  0  0  0  0  0  0  0
    5.7741   -1.1044    0.0000 H   0  0  0  0  0  0  0  0  0  0  0  0
    6.0010   -0.2575    0.0000 H   0  0  0  0  0  0  0  0  0  0  0  0
    5.1541   -0.0306    0.0000 H   0  0  0  0  0  0  0  0  0  0  0  0
  1  2  1  0  0  0  0
  2  3  2  0  0  0  0
  3  4  1  0  0  0  0
  4  5  2  0  0  0  0
  5  6  1  0  0  0  0
  6  7  1  0  0  0  0
  7  8  1  0  0  0  0
  7  9  1  6  0  0  0
  9 10  1  0  0  0  0
 10 11  2  0  0  0  0
 10 12  1  0  0  0  0
 12 13  1  0  0  0  0
 13 14  1  0  0  0  0
 14 15  1  0  0  0  0
 15 16  1  0  0  0  0
 12 16  1  0  0  0  0
  7 17  1  0  0  0  0
 17 18  1  0  0  0  0
 17 19  2  0  0  0  0
  5 20  1  0  0  0  0
 20 21  2  0  0  0  0
  2 21  1  0  0  0  0
 20 22  1  0  0  0  0
  4 23  1  0  0  0  0
  1 24  1  0  0  0  0
  1 25  1  0  0  0  0
  1 26  1  0  0  0  0
  3 27  1  0  0  0  0
  6 28  1  0  0  0  0
  6 29  1  0  0  0  0
  9 30  1  0  0  0  0
 12 31  1  0  0  0  0
 13 32  1  0  0  0  0
 13 33  1  0  0  0  0
 14 34  1  0  0  0  0
 14 35  1  0  0  0  0
 15 36  1  0  0  0  0
 15 37  1  0  0  0  0
 16 38  1  0  0  0  0
 16 39  1  0  0  0  0
 18 40  1  0  0  0  0
 21 41  1  0  0  0  0
 22 42  1  0  0  0  0
 22 43  1  0  0  0  0
 22 44  1  0  0  0  0
 23 45  1  0  0  0  0
 23 46  1  0  0  0  0
 23 47  1  0  0  0  0
M  END
> <UNIQUE_SMILES>
CC1=CC(=C(C[C@@H](NC(=O)C2CCCC2)C(O)=O)C(=C1)C)C

> <USER_SUPPLIED_SMILES>
CC1=CC(=C(C[C@@H](NC(=O)C2CCCC2)C(O)=O)C(=C1)C)C

$$$$
C9H9NO3
APtclcactv12202015492D 0   0.00000     0.00000    10
 
 22 22  0  0  0  0  0  0  0  0999 V2000
    4.5981    3.0000    0.0000 O   0  5  0  0  0  0  0  0  0  0  0  0
    4.5981    2.0000    0.0000 N   0  3  0  0  0  0  0  0  0  0  0  0
    5.4641    1.5000    0.0000 O   0  0  0  0  0  0  0  0  0  0  0  0
    3.7321    1.5000    0.0000 C   0  0  0  0  0  0  0  0  0  0  0  0
    3.7321    0.5000    0.0000 C   0  0  0  0  0  0  0  0  0  0  0  0
    2.8660    0.0000    0.0000 C   0  0  0  0  0  0  0  0  0  0  0  0
    2.0000    0.5000    0.0000 O   0  0  0  0  0  0  0  0  0  0  0  0
    2.8660   -1.0000    0.0000 C   0  0  0  0  0  0  0  0  0  0  0  0
    2.0000   -1.5000    0.0000 C   0  0  0  0  0  0  0  0  0  0  0  0
    2.0000   -2.5000    0.0000 C   0  0  0  0  0  0  0  0  0  0  0  0
    2.8660   -3.0000    0.0000 C   0  0  0  0  0  0  0  0  0  0  0  0
    3.7321   -2.5000    0.0000 C   0  0  0  0  0  0  0  0  0  0  0  0
    3.7321   -1.5000    0.0000 C   0  0  0  0  0  0  0  0  0  0  0  0
    3.5200    2.0826    0.0000 H   0  0  0  0  0  0  0  0  0  0  0  0
    3.1215    1.3923    0.0000 H   0  0  0  0  0  0  0  0  0  0  0  0
    3.9441   -0.0826    0.0000 H   0  0  0  0  0  0  0  0  0  0  0  0
    4.3426    0.6077    0.0000 H   0  0  0  0  0  0  0  0  0  0  0  0
    1.4631   -1.1900    0.0000 H   0  0  0  0  0  0  0  0  0  0  0  0
    1.4631   -2.8100    0.0000 H   0  0  0  0  0  0  0  0  0  0  0  0
    2.8660   -3.6200    0.0000 H   0  0  0  0  0  0  0  0  0  0  0  0
    4.2690   -2.8100    0.0000 H   0  0  0  0  0  0  0  0  0  0  0  0
    4.2690   -1.1900    0.0000 H   0  0  0  0  0  0  0  0  0  0  0  0
  1  2  1  0  0  0  0
  2  3  2  0  0  0  0
  2  4  1  0  0  0  0
  4  5  1  0  0  0  0
  5  6  1  0  0  0  0
  6  7  2  0  0  0  0
  6  8  1  0  0  0  0
  8  9  2  0  0  0  0
  9 10  1  0  0  0  0
 10 11  2  0  0  0  0
 11 12  1  0  0  0  0
 12 13  2  0  0  0  0
  8 13  1  0  0  0  0
  4 14  1  0  0  0  0
  4 15  1  0  0  0  0
  5 16  1  0  0  0  0
  5 17  1  0  0  0  0
  9 18  1  0  0  0  0
 10 19  1  0  0  0  0
 11 20  1  0  0  0  0
 12 21  1  0  0  0  0
 13 22  1  0  0  0  0
M  CHG  2   1  -1   2   1
M  END
> <UNIQUE_SMILES>
[O-][N+](=O)CCC(=O)C1=CC=CC=C1

> <USER_SUPPLIED_SMILES>
[O-][N+](=O)CCC(=O)C1=CC=CC=C1

$$$$
C10H13NO2
APtclcactv12202015492D 0   0.00000     0.00000    11
 
 26 26  0  0  1  0  0  0  0  0999 V2000
    2.0000    1.6900    0.0000 C   0  0  0  0  0  0  0  0  0  0  0  0
    2.0000    0.6900    0.0000 C   0  0  0  0  0  0  0  0  0  0  0  0
    2.8660    0.1900    0.0000 C   0  0  1  0  0  0  0  0  0  0  0  0
    2.8660    0.8100    0.0000 H   0  0  0  0  0  0  0  0  0  0  0  0
    3.7321    0.6900    0.0000 C   0  0  0  0  0  0  0  0  0  0  0  0
    4.5981    0.1900    0.0000 O   0  0  0  0  0  0  0  0  0  0  0  0
    3.7321    1.6900    0.0000 N   0  0  0  0  0  0  0  0  0  0  0  0
    4.5981    2.1900    0.0000 O   0  0  0  0  0  0  0  0  0  0  0  0
    2.8660   -0.8100    0.0000 C   0  0  0  0  0  0  0  0  0  0  0  0
    2.0000   -1.3100    0.0000 C   0  0  0  0  0  0  0  0  0  0  0  0
    2.0000   -2.3100    0.0000 C   0  0  0  0  0  0  0  0  0  0  0  0
    2.8660   -2.8100    0.0000 C   0  0  0  0  0  0  0  0  0  0  0  0
    3.7321   -2.3100    0.0000 C   0  0  0  0  0  0  0  0  0  0  0  0
    3.7321   -1.3100    0.0000 C   0  0  0  0  0  0  0  0  0  0  0  0
    2.6200    1.6900    0.0000 H   0  0  0  0  0  0  0  0  0  0  0  0
    2.0000    2.3100    0.0000 H   0  0  0  0  0  0  0  0  0  0  0  0
    1.3800    1.6900    0.0000 H   0  0  0  0  0  0  0  0  0  0  0  0
    1.3894    0.7977    0.0000 H   0  0  0  0  0  0  0  0  0  0  0  0
    1.7879    0.1074    0.0000 H   0  0  0  0  0  0  0  0  0  0  0  0
    3.1951    2.0000    0.0000 H   0  0  0  0  0  0  0  0  0  0  0  0
    4.5981    2.8100    0.0000 H   0  0  0  0  0  0  0  0  0  0  0  0
    1.4631   -1.0000    0.0000 H   0  0  0  0  0  0  0  0  0  0  0  0
    1.4631   -2.6200    0.0000 H   0  0  0  0  0  0  0  0  0  0  0  0
    2.8660   -3.4300    0.0000 H   0  0  0  0  0  0  0  0  0  0  0  0
    4.2690   -2.6200    0.0000 H   0  0  0  0  0  0  0  0  0  0  0  0
    4.2690   -1.0000    0.0000 H   0  0  0  0  0  0  0  0  0  0  0  0
  1  2  1  0  0  0  0
  3  2  1  1  0  0  0
  3  4  1  0  0  0  0
  3  5  1  0  0  0  0
  5  6  2  0  0  0  0
  5  7  1  0  0  0  0
  7  8  1  0  0  0  0
  3  9  1  0  0  0  0
  9 10  2  0  0  0  0
 10 11  1  0  0  0  0
 11 12  2  0  0  0  0
 12 13  1  0  0  0  0
 13 14  2  0  0  0  0
  9 14  1  0  0  0  0
  1 15  1  0  0  0  0
  1 16  1  0  0  0  0
  1 17  1  0  0  0  0
  2 18  1  0  0  0  0
  2 19  1  0  0  0  0
  7 20  1  0  0  0  0
  8 21  1  0  0  0  0
 10 22  1  0  0  0  0
 11 23  1  0  0  0  0
 12 24  1  0  0  0  0
 13 25  1  0  0  0  0
 14 26  1  0  0  0  0
M  END
> <UNIQUE_SMILES>
CC[C@@H](C(=O)NO)C1=CC=CC=C1

> <USER_SUPPLIED_SMILES>
CC[C@@H](C(=O)NO)C1=CC=CC=C1

$$$$
C17H23NO3
APtclcactv12202015492D 0   0.00000     0.00000    12
 
 44 45  0  0  1  0  0  0  0  0999 V2000
    5.4641   -3.7694    0.0000 C   0  0  0  0  0  0  0  0  0  0  0  0
    4.5981   -3.2694    0.0000 C   0  0  0  0  0  0  0  0  0  0  0  0
    4.5981   -2.2694    0.0000 C   0  0  0  0  0  0  0  0  0  0  0  0
    3.7321   -1.7694    0.0000 C   0  0  0  0  0  0  0  0  0  0  0  0
    2.8660   -2.2694    0.0000 C   0  0  0  0  0  0  0  0  0  0  0  0
    2.0000   -1.7694    0.0000 C   0  0  0  0  0  0  0  0  0  0  0  0
    2.8660   -3.2694    0.0000 C   0  0  0  0  0  0  0  0  0  0  0  0
    3.7321   -3.7694    0.0000 C   0  0  0  0  0  0  0  0  0  0  0  0
    3.7321   -0.7694    0.0000 C   0  0  0  0  0  0  0  0  0  0  0  0
    4.5981   -0.2694    0.0000 C   0  0  2  0  0  0  0  0  0  0  0  0
    5.1350    0.0406    0.0000 H   0  0  0  0  0  0  0  0  0  0  0  0
    4.5981    0.7306    0.0000 N   0  0  0  0  0  0  0  0  0  0  0  0
    5.4641    1.2306    0.0000 C   0  0  0  0  0  0  0  0  0  0  0  0
    6.3301    0.7306    0.0000 O   0  0  0  0  0  0  0  0  0  0  0  0
    5.4641    2.2306    0.0000 C   0  0  0  0  0  0  0  0  0  0  0  0
    6.2731    2.8184    0.0000 C   0  0  0  0  0  0  0  0  0  0  0  0
    5.9641    3.7694    0.0000 C   0  0  0  0  0  0  0  0  0  0  0  0
    4.9641    3.7694    0.0000 C   0  0  0  0  0  0  0  0  0  0  0  0
    4.6551    2.8184    0.0000 C   0  0  0  0  0  0  0  0  0  0  0  0
    5.4641   -0.7694    0.0000 C   0  0  0  0  0  0  0  0  0  0  0  0
    6.3301   -0.2694    0.0000 O   0  0  0  0  0  0  0  0  0  0  0  0
    5.4641   -1.7694    0.0000 O   0  0  0  0  0  0  0  0  0  0  0  0
    5.1541   -4.3064    0.0000 H   0  0  0  0  0  0  0  0  0  0  0  0
    6.0010   -4.0794    0.0000 H   0  0  0  0  0  0  0  0  0  0  0  0
    5.7741   -3.2325    0.0000 H   0  0  0  0  0  0  0  0  0  0  0  0
    5.1350   -1.9594    0.0000 H   0  0  0  0  0  0  0  0  0  0  0  0
    2.3100   -1.2325    0.0000 H   0  0  0  0  0  0  0  0  0  0  0  0
    1.4631   -1.4594    0.0000 H   0  0  0  0  0  0  0  0  0  0  0  0
    1.6900   -2.3064    0.0000 H   0  0  0  0  0  0  0  0  0  0  0  0
    2.3291   -3.5794    0.0000 H   0  0  0  0  0  0  0  0  0  0  0  0
    3.7321   -4.3894    0.0000 H   0  0  0  0  0  0  0  0  0  0  0  0
    3.5200   -0.1868    0.0000 H   0  0  0  0  0  0  0  0  0  0  0  0
    3.1215   -0.8771    0.0000 H   0  0  0  0  0  0  0  0  0  0  0  0
    4.0611    1.0406    0.0000 H   0  0  0  0  0  0  0  0  0  0  0  0
    6.0165    1.9491    0.0000 H   0  0  0  0  0  0  0  0  0  0  0  0
    6.5831    2.2814    0.0000 H   0  0  0  0  0  0  0  0  0  0  0  0
    6.8395    3.0705    0.0000 H   0  0  0  0  0  0  0  0  0  0  0  0
    6.5706    3.8983    0.0000 H   0  0  0  0  0  0  0  0  0  0  0  0
    5.8993    4.3860    0.0000 H   0  0  0  0  0  0  0  0  0  0  0  0
    5.0289    4.3860    0.0000 H   0  0  0  0  0  0  0  0  0  0  0  0
    4.3577    3.8983    0.0000 H   0  0  0  0  0  0  0  0  0  0  0  0
    4.0887    3.0705    0.0000 H   0  0  0  0  0  0  0  0  0  0  0  0
    4.3451    2.2814    0.0000 H   0  0  0  0  0  0  0  0  0  0  0  0
    6.8671   -0.5794    0.0000 H   0  0  0  0  0  0  0  0  0  0  0  0
  1  2  1  0  0  0  0
  2  3  2  0  0  0  0
  3  4  1  0  0  0  0
  4  5  2  0  0  0  0
  5  6  1  0  0  0  0
  5  7  1  0  0  0  0
  7  8  2  0  0  0  0
  2  8  1  0  0  0  0
  4  9  1  0  0  0  0
  9 10  1  0  0  0  0
 10 11  1  0  0  0  0
 10 12  1  6  0  0  0
 12 13  1  0  0  0  0
 13 14  2  0  0  0  0
 13 15  1  0  0  0  0
 15 16  1  0  0  0  0
 16 17  1  0  0  0  0
 17 18  1  0  0  0  0
 18 19  1  0  0  0  0
 15 19  1  0  0  0  0
 10 20  1  0  0  0  0
 20 21  1  0  0  0  0
 20 22  2  0  0  0  0
  1 23  1  0  0  0  0
  1 24  1  0  0  0  0
  1 25  1  0  0  0  0
  3 26  1  0  0  0  0
  6 27  1  0  0  0  0
  6 28  1  0  0  0  0
  6 29  1  0  0  0  0
  7 30  1  0  0  0  0
  8 31  1  0  0  0  0
  9 32  1  0  0  0  0
  9 33  1  0  0  0  0
 12 34  1  0  0  0  0
 15 35  1  0  0  0  0
 16 36  1  0  0  0  0
 16 37  1  0  0  0  0
 17 38  1  0  0  0  0
 17 39  1  0  0  0  0
 18 40  1  0  0  0  0
 18 41  1  0  0  0  0
 19 42  1  0  0  0  0
 19 43  1  0  0  0  0
 21 44  1  0  0  0  0
M  END
> <UNIQUE_SMILES>
CC1=CC(=C(C)C=C1)C[C@H](NC(=O)C2CCCC2)C(O)=O

> <USER_SUPPLIED_SMILES>
CC1=CC(=C(C)C=C1)C[C@H](NC(=O)C2CCCC2)C(O)=O

$$$$
C10H11NO3
APtclcactv12202015492D 0   0.00000     0.00000    13
 
 25 25  0  0  1  0  0  0  0  0999 V2000
    2.8660    2.0000    0.0000 C   0  0  0  0  0  0  0  0  0  0  0  0
    3.7321    1.5000    0.0000 C   0  0  1  0  0  0  0  0  0  0  0  0
    3.7321    2.1200    0.0000 H   0  0  0  0  0  0  0  0  0  0  0  0
    3.7321    0.5000    0.0000 C   0  0  0  0  0  0  0  0  0  0  0  0
    2.8660    0.0000    0.0000 C   0  0  0  0  0  0  0  0  0  0  0  0
    2.0000    0.5000    0.0000 O   0  0  0  0  0  0  0  0  0  0  0  0
    2.8660   -1.0000    0.0000 C   0  0  0  0  0  0  0  0  0  0  0  0
    2.0000   -1.5000    0.0000 C   0  0  0  0  0  0  0  0  0  0  0  0
    2.0000   -2.5000    0.0000 C   0  0  0  0  0  0  0  0  0  0  0  0
    2.8660   -3.0000    0.0000 C   0  0  0  0  0  0  0  0  0  0  0  0
    3.7321   -2.5000    0.0000 C   0  0  0  0  0  0  0  0  0  0  0  0
    3.7321   -1.5000    0.0000 C   0  0  0  0  0  0  0  0  0  0  0  0
    4.5981    2.0000    0.0000 N   0  3  0  0  0  0  0  0  0  0  0  0
    4.5981    3.0000    0.0000 O   0  5  0  0  0  0  0  0  0  0  0  0
    5.4641    1.5000    0.0000 O   0  0  0  0  0  0  0  0  0  0  0  0
    3.1760    2.5369    0.0000 H   0  0  0  0  0  0  0  0  0  0  0  0
    2.3291    2.3100    0.0000 H   0  0  0  0  0  0  0  0  0  0  0  0
    2.5560    1.4631    0.0000 H   0  0  0  0  0  0  0  0  0  0  0  0
    3.9441   -0.0826    0.0000 H   0  0  0  0  0  0  0  0  0  0  0  0
    4.3426    0.6077    0.0000 H   0  0  0  0  0  0  0  0  0  0  0  0
    1.4631   -1.1900    0.0000 H   0  0  0  0  0  0  0  0  0  0  0  0
    1.4631   -2.8100    0.0000 H   0  0  0  0  0  0  0  0  0  0  0  0
    2.8660   -3.6200    0.0000 H   0  0  0  0  0  0  0  0  0  0  0  0
    4.2690   -2.8100    0.0000 H   0  0  0  0  0  0  0  0  0  0  0  0
    4.2690   -1.1900    0.0000 H   0  0  0  0  0  0  0  0  0  0  0  0
  1  2  1  0  0  0  0
  2  3  1  0  0  0  0
  2  4  1  0  0  0  0
  4  5  1  0  0  0  0
  5  6  2  0  0  0  0
  5  7  1  0  0  0  0
  7  8  2  0  0  0  0
  8  9  1  0  0  0  0
  9 10  2  0  0  0  0
 10 11  1  0  0  0  0
 11 12  2  0  0  0  0
  7 12  1  0  0  0  0
  2 13  1  6  0  0  0
 13 14  1  0  0  0  0
 13 15  2  0  0  0  0
  1 16  1  0  0  0  0
  1 17  1  0  0  0  0
  1 18  1  0  0  0  0
  4 19  1  0  0  0  0
  4 20  1  0  0  0  0
  8 21  1  0  0  0  0
  9 22  1  0  0  0  0
 10 23  1  0  0  0  0
 11 24  1  0  0  0  0
 12 25  1  0  0  0  0
M  CHG  2  13   1  14  -1
M  END
> <UNIQUE_SMILES>
C[C@@H](CC(=O)C1=CC=CC=C1)[N+]([O-])=O

> <USER_SUPPLIED_SMILES>
C[C@@H](CC(=O)C1=CC=CC=C1)[N+]([O-])=O

$$$$
C10H11NO3
APtclcactv12202015492D 0   0.00000     0.00000    14
 
 25 25  0  0  1  0  0  0  0  0999 V2000
    2.8660    2.0000    0.0000 C   0  0  0  0  0  0  0  0  0  0  0  0
    3.7321    1.5000    0.0000 C   0  0  2  0  0  0  0  0  0  0  0  0
    3.7321    2.1200    0.0000 H   0  0  0  0  0  0  0  0  0  0  0  0
    3.7321    0.5000    0.0000 C   0  0  0  0  0  0  0  0  0  0  0  0
    2.8660    0.0000    0.0000 C   0  0  0  0  0  0  0  0  0  0  0  0
    2.0000    0.5000    0.0000 O   0  0  0  0  0  0  0  0  0  0  0  0
    2.8660   -1.0000    0.0000 C   0  0  0  0  0  0  0  0  0  0  0  0
    2.0000   -1.5000    0.0000 C   0  0  0  0  0  0  0  0  0  0  0  0
    2.0000   -2.5000    0.0000 C   0  0  0  0  0  0  0  0  0  0  0  0
    2.8660   -3.0000    0.0000 C   0  0  0  0  0  0  0  0  0  0  0  0
    3.7321   -2.5000    0.0000 C   0  0  0  0  0  0  0  0  0  0  0  0
    3.7321   -1.5000    0.0000 C   0  0  0  0  0  0  0  0  0  0  0  0
    4.5981    2.0000    0.0000 N   0  3  0  0  0  0  0  0  0  0  0  0
    4.5981    3.0000    0.0000 O   0  5  0  0  0  0  0  0  0  0  0  0
    5.4641    1.5000    0.0000 O   0  0  0  0  0  0  0  0  0  0  0  0
    3.1760    2.5369    0.0000 H   0  0  0  0  0  0  0  0  0  0  0  0
    2.3291    2.3100    0.0000 H   0  0  0  0  0  0  0  0  0  0  0  0
    2.5560    1.4631    0.0000 H   0  0  0  0  0  0  0  0  0  0  0  0
    3.9441   -0.0826    0.0000 H   0  0  0  0  0  0  0  0  0  0  0  0
    4.3426    0.6077    0.0000 H   0  0  0  0  0  0  0  0  0  0  0  0
    1.4631   -1.1900    0.0000 H   0  0  0  0  0  0  0  0  0  0  0  0
    1.4631   -2.8100    0.0000 H   0  0  0  0  0  0  0  0  0  0  0  0
    2.8660   -3.6200    0.0000 H   0  0  0  0  0  0  0  0  0  0  0  0
    4.2690   -2.8100    0.0000 H   0  0  0  0  0  0  0  0  0  0  0  0
    4.2690   -1.1900    0.0000 H   0  0  0  0  0  0  0  0  0  0  0  0
  1  2  1  0  0  0  0
  2  3  1  0  0  0  0
  2  4  1  0  0  0  0
  4  5  1  0  0  0  0
  5  6  2  0  0  0  0
  5  7  1  0  0  0  0
  7  8  2  0  0  0  0
  8  9  1  0  0  0  0
  9 10  2  0  0  0  0
 10 11  1  0  0  0  0
 11 12  2  0  0  0  0
  7 12  1  0  0  0  0
  2 13  1  1  0  0  0
 13 14  1  0  0  0  0
 13 15  2  0  0  0  0
  1 16  1  0  0  0  0
  1 17  1  0  0  0  0
  1 18  1  0  0  0  0
  4 19  1  0  0  0  0
  4 20  1  0  0  0  0
  8 21  1  0  0  0  0
  9 22  1  0  0  0  0
 10 23  1  0  0  0  0
 11 24  1  0  0  0  0
 12 25  1  0  0  0  0
M  CHG  2  13   1  14  -1
M  END
> <UNIQUE_SMILES>
C[C@H](CC(=O)C1=CC=CC=C1)[N+]([O-])=O

> <USER_SUPPLIED_SMILES>
C[C@H](CC(=O)C1=CC=CC=C1)[N+]([O-])=O

$$$$
C17H23NO3
APtclcactv12202015492D 0   0.00000     0.00000    15
 
 44 45  0  0  0  0  0  0  0  0999 V2000
    3.4030   -4.5000    0.0000 C   0  0  0  0  0  0  0  0  0  0  0  0
    3.4030   -3.5000    0.0000 C   0  0  0  0  0  0  0  0  0  0  0  0
    4.2690   -3.0000    0.0000 C   0  0  0  0  0  0  0  0  0  0  0  0
    4.2690   -2.0000    0.0000 C   0  0  0  0  0  0  0  0  0  0  0  0
    3.4030   -1.5000    0.0000 C   0  0  0  0  0  0  0  0  0  0  0  0
    2.5369   -2.0000    0.0000 C   0  0  0  0  0  0  0  0  0  0  0  0
    2.5369   -3.0000    0.0000 C   0  0  0  0  0  0  0  0  0  0  0  0
    3.4030   -0.5000    0.0000 C   0  0  0  0  0  0  0  0  0  0  0  0
    2.5369    0.0000    0.0000 O   0  0  0  0  0  0  0  0  0  0  0  0
    4.2690    0.0000    0.0000 N   0  0  0  0  0  0  0  0  0  0  0  0
    4.2690    1.0000    0.0000 C   0  0  0  0  0  0  0  0  0  0  0  0
    5.1350    1.5000    0.0000 C   0  0  0  0  0  0  0  0  0  0  0  0
    5.1350    2.5000    0.0000 C   0  0  0  0  0  0  0  0  0  0  0  0
    6.0010    3.0000    0.0000 C   0  0  0  0  0  0  0  0  0  0  0  0
    6.0010    4.0000    0.0000 C   0  0  0  0  0  0  0  0  0  0  0  0
    5.1350    4.5000    0.0000 C   0  0  0  0  0  0  0  0  0  0  0  0
    4.2690    4.0000    0.0000 C   0  0  0  0  0  0  0  0  0  0  0  0
    4.2690    3.0000    0.0000 C   0  0  0  0  0  0  0  0  0  0  0  0
    3.4030    1.5000    0.0000 C   0  0  0  0  0  0  0  0  0  0  0  0
    2.5369    1.0000    0.0000 O   0  0  0  0  0  0  0  0  0  0  0  0
    3.4030    2.5000    0.0000 O   0  0  0  0  0  0  0  0  0  0  0  0
    2.7830   -4.5000    0.0000 H   0  0  0  0  0  0  0  0  0  0  0  0
    3.4030   -5.1200    0.0000 H   0  0  0  0  0  0  0  0  0  0  0  0
    4.0230   -4.5000    0.0000 H   0  0  0  0  0  0  0  0  0  0  0  0
    3.9399   -3.8100    0.0000 H   0  0  0  0  0  0  0  0  0  0  0  0
    4.4810   -3.5826    0.0000 H   0  0  0  0  0  0  0  0  0  0  0  0
    4.8796   -2.8923    0.0000 H   0  0  0  0  0  0  0  0  0  0  0  0
    4.8796   -2.1077    0.0000 H   0  0  0  0  0  0  0  0  0  0  0  0
    4.4810   -1.4174    0.0000 H   0  0  0  0  0  0  0  0  0  0  0  0
    3.9399   -1.1900    0.0000 H   0  0  0  0  0  0  0  0  0  0  0  0
    2.3249   -1.4174    0.0000 H   0  0  0  0  0  0  0  0  0  0  0  0
    1.9264   -2.1077    0.0000 H   0  0  0  0  0  0  0  0  0  0  0  0
    1.9264   -2.8923    0.0000 H   0  0  0  0  0  0  0  0  0  0  0  0
    2.3249   -3.5826    0.0000 H   0  0  0  0  0  0  0  0  0  0  0  0
    4.8059   -0.3100    0.0000 H   0  0  0  0  0  0  0  0  0  0  0  0
    4.8059    0.6900    0.0000 H   0  0  0  0  0  0  0  0  0  0  0  0
    5.3471    0.9174    0.0000 H   0  0  0  0  0  0  0  0  0  0  0  0
    5.7456    1.6077    0.0000 H   0  0  0  0  0  0  0  0  0  0  0  0
    6.5380    2.6900    0.0000 H   0  0  0  0  0  0  0  0  0  0  0  0
    6.5380    4.3100    0.0000 H   0  0  0  0  0  0  0  0  0  0  0  0
    5.1350    5.1200    0.0000 H   0  0  0  0  0  0  0  0  0  0  0  0
    3.7321    4.3100    0.0000 H   0  0  0  0  0  0  0  0  0  0  0  0
    3.7321    2.6900    0.0000 H   0  0  0  0  0  0  0  0  0  0  0  0
    2.0000    1.3100    0.0000 H   0  0  0  0  0  0  0  0  0  0  0  0
  1  2  1  0  0  0  0
  2  3  1  0  0  0  0
  3  4  1  0  0  0  0
  4  5  1  0  0  0  0
  5  6  1  0  0  0  0
  6  7  1  0  0  0  0
  2  7  1  0  0  0  0
  5  8  1  0  0  0  0
  8  9  2  0  0  0  0
  8 10  1  0  0  0  0
 10 11  1  0  0  0  0
 11 12  1  0  0  0  0
 12 13  1  0  0  0  0
 13 14  2  0  0  0  0
 14 15  1  0  0  0  0
 15 16  2  0  0  0  0
 16 17  1  0  0  0  0
 17 18  2  0  0  0  0
 13 18  1  0  0  0  0
 11 19  1  0  0  0  0
 19 20  1  0  0  0  0
 19 21  2  0  0  0  0
  1 22  1  0  0  0  0
  1 23  1  0  0  0  0
  1 24  1  0  0  0  0
  2 25  1  0  0  0  0
  3 26  1  0  0  0  0
  3 27  1  0  0  0  0
  4 28  1  0  0  0  0
  4 29  1  0  0  0  0
  5 30  1  0  0  0  0
  6 31  1  0  0  0  0
  6 32  1  0  0  0  0
  7 33  1  0  0  0  0
  7 34  1  0  0  0  0
 10 35  1  0  0  0  0
 11 36  1  0  0  0  0
 12 37  1  0  0  0  0
 12 38  1  0  0  0  0
 14 39  1  0  0  0  0
 15 40  1  0  0  0  0
 16 41  1  0  0  0  0
 17 42  1  0  0  0  0
 18 43  1  0  0  0  0
 20 44  1  0  0  0  0
M  END
> <UNIQUE_SMILES>
CC1CCC(CC1)C(=O)NC(CC2=CC=CC=C2)C(O)=O

> <USER_SUPPLIED_SMILES>
CC1CCC(CC1)C(=O)NC(CC2=CC=CC=C2)C(O)=O

$$$$
