
  Mrv1903 12202014223D          

 13 13  0  0  1  0            999 V2000
   -0.9517   -2.4742   -0.1104 C   0  0  0  0  0  0  0  0  0  0  0  0
    0.0125   -1.9602    1.0000 C   0  0  1  0  0  0  0  0  0  0  0  0
    0.7912   -3.1230    1.7054 C   0  0  0  0  0  0  0  0  0  0  0  0
   -0.0661   -4.1949    2.2893 C   0  0  0  0  0  0  0  0  0  0  0  0
   -0.3873   -5.3447    1.5283 C   0  0  0  0  0  0  0  0  0  0  0  0
   -1.1946   -6.3630    2.0651 C   0  0  0  0  0  0  0  0  0  0  0  0
   -1.6826   -6.2540    3.3782 C   0  0  0  0  0  0  0  0  0  0  0  0
   -1.3733   -5.1189    4.1480 C   0  0  0  0  0  0  0  0  0  0  0  0
   -0.5744   -4.0940    3.6063 C   0  0  0  0  0  0  0  0  0  0  0  0
    0.9084   -0.9033    0.4352 C   0  0  0  0  0  0  0  0  0  0  0  0
    2.1566   -1.0281    0.4232 O   0  0  0  0  0  0  0  0  0  0  0  0
    0.3678    0.2194   -0.1004 N   0  0  0  0  0  0  0  0  0  0  0  0
    1.0833    1.1681   -0.6415 O   0  0  0  0  0  0  0  0  0  0  0  0
  1  2  1  0  0  0  0
  2  3  1  0  0  0  0
  3  4  1  0  0  0  0
  4  5  2  0  0  0  0
  5  6  1  0  0  0  0
  6  7  2  0  0  0  0
  7  8  1  0  0  0  0
  8  9  2  0  0  0  0
  4  9  1  0  0  0  0
  2 10  1  0  0  0  0
 10 11  2  0  0  0  0
 10 12  1  0  0  0  0
 12 13  1  0  0  0  0
M  END
$$$$
