# Top-energy pose of compounds ranked according to the score (given in kcal/mol).
@<TRIPOS>MOLECULE
ligand_9bb265fe2c_1_run_11.pdb
 21 22 0 0 0
SMALL
GASTEIGER

@<TRIPOS>ATOM
      1    C       14.2340   43.1560   -5.5110 C.3     2  LIG2        0.0310
      2    C       13.5680   43.0190   -6.8260 C.ar    2  LIG2       -0.0222
      3    C       12.6580   41.9660   -7.0540 C.ar    2  LIG2       -0.0088
      4    C       12.0040   41.7870   -8.3010 C.ar    2  LIG2       -0.0241
      5    C       12.2790   42.7110   -9.3570 C.ar    2  LIG2       -0.0258
      6    C       11.6820   42.6670  -10.7210 C.3     2  LIG2        0.0307
      7    C       13.1950   43.7640   -9.1190 C.ar    2  LIG2       -0.0049
      8    C       13.8270   43.9200   -7.8760 C.ar    2  LIG2       -0.0046
      9    C       11.0540   40.6310   -8.3930 C.3     2  LIG2        0.0593
     10    C       11.6560   39.3090   -7.8040 C.3     2  LIG2        0.2020
     11    N       12.3460   38.4350   -8.7070 N.am    2  LIG2       -0.1952
     12    C       13.4200   38.6900   -9.5080 C.2     2  LIG2        0.2413
     13    O       13.9430   39.8270   -9.5620 O.2     2  LIG2       -0.2733
     14    C       13.9920   37.6030  -10.3430 C.3     2  LIG2        0.0782
     15    C       14.7290   38.1040  -11.6030 C.3     2  LIG2        0.0091
     16    C       14.8300   36.8520  -12.4920 C.3     2  LIG2        0.0005
     17    C       13.5390   36.0520  -12.2190 C.3     2  LIG2        0.0005
     18    C       12.9610   36.5770  -10.8850 C.3     2  LIG2        0.0091
     19    C       10.6730   38.5080   -7.0500 C.2     2  LIG2        0.3845
     20    O        9.4790   39.0400   -6.7010 O.co2   2  LIG2       -0.2437
     21    O       10.9320   37.3340   -6.7020 O.co2   2  LIG2       -0.2437
@<TRIPOS>BOND
     1    16    17    1
     2    16    15    1
     3    17    18    1
     4    15    14    1
     5    18    14    1
     6     6     5    1
     7    14    12    1
     8    13    12    2
     9    12    11   am
    10     5     7   ar
    11     5     4   ar
    12     7     8   ar
    13    11    10    1
    14     9     4    1
    15     9    10    1
    16     4     3   ar
    17     8     2   ar
    18    10    19    1
    19     3     2   ar
    20    19    21   ar
    21    19    20   ar
    22     2     1    1
@<TRIPOS>MOLECULE
ligand_acbff919f8_1_run_8.pdb
 22 23 0 0 0
SMALL
GASTEIGER

@<TRIPOS>ATOM
      1    C       15.8460   44.2020   -9.0150 C.3     2  LIG2        0.0310
      2    C       14.6480   43.3450   -8.8410 C.ar    2  LIG2       -0.0225
      3    C       13.8550   42.9570   -9.9330 C.ar    2  LIG2       -0.0088
      4    C       12.7210   42.1290   -9.7720 C.ar    2  LIG2       -0.0263
      5    C       12.3750   41.6490   -8.4670 C.ar    2  LIG2       -0.0278
      6    C       11.2410   40.6710   -8.3210 C.3     2  LIG2        0.0590
      7    C       11.7470   39.2780   -7.8090 C.3     2  LIG2        0.2020
      8    N       12.3680   38.4270   -8.7770 N.am    2  LIG2       -0.1952
      9    C       13.5860   38.5580   -9.3660 C.2     2  LIG2        0.2413
     10    O       14.3510   39.5110   -9.0870 O.2     2  LIG2       -0.2733
     11    C       14.0180   37.5700  -10.3870 C.3     2  LIG2        0.0782
     12    C       14.8470   38.2140  -11.5170 C.3     2  LIG2        0.0091
     13    C       14.8200   37.1630  -12.6410 C.3     2  LIG2        0.0005
     14    C       13.4510   36.4600  -12.5230 C.3     2  LIG2        0.0005
     15    C       12.8830   36.8140  -11.1270 C.3     2  LIG2        0.0091
     16    C       10.7120   38.4970   -7.0980 C.2     2  LIG2        0.3845
     17    O        9.5110   39.0530   -6.8150 O.co2   2  LIG2       -0.2437
     18    O       10.9210   37.3110   -6.7550 O.co2   2  LIG2       -0.2437
     19    C       13.1730   42.0490   -7.3460 C.ar    2  LIG2       -0.0263
     20    C       14.2870   42.8970   -7.5590 C.ar    2  LIG2       -0.0088
     21    C       12.9610   41.6400   -5.9260 C.3     2  LIG2        0.0307
     22    C       11.9350   41.7970  -10.9990 C.3     2  LIG2        0.0307
@<TRIPOS>BOND
     1    13    14    1
     2    13    12    1
     3    14    15    1
     4    12    11    1
     5    15    11    1
     6    22     4    1
     7    11     9    1
     8     3     4   ar
     9     3     2   ar
    10     4     5   ar
    11     9    10    2
    12     9     8   am
    13     1     2    1
    14     2    20   ar
    15     8     7    1
    16     5     6    1
    17     5    19   ar
    18     6     7    1
    19     7    16    1
    20    20    19   ar
    21    19    21    1
    22    16    17   ar
    23    16    18   ar
@<TRIPOS>MOLECULE
ligand_246295c4f9_1_run_3.pdb
 15 15 0 0 0
SMALL
GASTEIGER

@<TRIPOS>ATOM
      1    C       11.5580   42.0270   -9.7960 C.3     2  LIG2        0.0022
      2    C       11.6760   41.3230   -8.4230 C.3     2  LIG2        0.0300
      3    C       11.9900   39.7970   -8.5330 C.3     2  LIG2        0.1738
      4    C       13.5260   39.5130   -8.6580 C.3     2  LIG2        0.0986
      5    C       13.9250   38.1490   -9.1290 C.2     2  LIG2        0.1752
      6    O       14.2370   37.3030   -8.2550 O.2     2  LIG2       -0.2913
      7    C       13.9480   37.7530  -10.5100 C.ar    2  LIG2        0.0348
      8    C       13.6970   38.6690  -11.5670 C.ar    2  LIG2        0.0028
      9    C       13.7050   38.2580  -12.9140 C.ar    2  LIG2        0.0001
     10    C       13.9640   36.9170  -13.2400 C.ar    2  LIG2        0.0000
     11    C       14.2260   35.9910  -12.2170 C.ar    2  LIG2        0.0001
     12    C       14.2210   36.4050  -10.8710 C.ar    2  LIG2        0.0028
     13    N       11.4230   39.0730   -7.4700 N.pl3   2  LIG2        0.0328
     14    O       10.9610   39.6730   -6.4500 O.2     2  LIG2       -0.1310
     15    O       11.3490   37.9070   -7.4770 O.2     2  LIG2       -0.1310
@<TRIPOS>BOND
     1    10     9   ar
     2    10    11   ar
     3     9     8   ar
     4    11    12   ar
     5     8     7   ar
     6    12     7   ar
     7     7     5    1
     8     1     2    1
     9     5     4    1
    10     5     6    2
    11     4     3    1
    12     3     2    1
    13     3    13    1
    14    15    13    2
    15    13    14    2
@<TRIPOS>MOLECULE
ligand_58672ea592_1_run_7.pdb
 15 15 0 0 0
SMALL
GASTEIGER

@<TRIPOS>ATOM
      1    C       13.2060   42.1830   -7.0900 C.3     2  LIG2        0.0022
      2    C       12.0820   41.2800   -7.6500 C.3     2  LIG2        0.0300
      3    C       12.4830   39.7730   -7.7400 C.3     2  LIG2        0.1738
      4    C       13.0010   39.3830   -9.1660 C.3     2  LIG2        0.0986
      5    C       13.8240   38.1350   -9.2670 C.2     2  LIG2        0.1752
      6    O       14.4510   37.7700   -8.2420 O.2     2  LIG2       -0.2913
      7    C       13.9500   37.3540  -10.4660 C.ar    2  LIG2        0.0348
      8    C       14.6630   36.1260  -10.5000 C.ar    2  LIG2        0.0028
      9    C       14.7590   35.3650  -11.6800 C.ar    2  LIG2        0.0001
     10    C       14.1450   35.8130  -12.8600 C.ar    2  LIG2        0.0000
     11    C       13.4450   37.0300  -12.8600 C.ar    2  LIG2        0.0001
     12    C       13.3520   37.7910  -11.6800 C.ar    2  LIG2        0.0028
     13    N       11.4230   38.9400   -7.3420 N.pl3   2  LIG2        0.0328
     14    O       10.5920   39.2980   -6.4500 O.2     2  LIG2       -0.1310
     15    O       11.2640   37.8870   -7.8200 O.2     2  LIG2       -0.1310
@<TRIPOS>BOND
     1    10    11   ar
     2    10     9   ar
     3    11    12   ar
     4     9     8   ar
     5    12     7   ar
     6     8     7   ar
     7     7     5    1
     8     5     4    1
     9     5     6    2
    10     4     3    1
    11    15    13    2
    12     3     2    1
    13     3    13    1
    14     2     1    1
    15    13    14    2
@<TRIPOS>MOLECULE
ligand_6d36e4b4cc_1_run_1.pdb
 21 22 0 0 0
SMALL
GASTEIGER

@<TRIPOS>ATOM
      1    C       10.4090   46.0240  -11.2750 C.3     2  LIG2        0.0000
      2    C       10.7640   45.0270  -10.1390 C.3     2  LIG2        0.0000
      3    C       12.3080   44.9310   -9.9300 C.3     2  LIG2        0.0005
      4    C       12.7010   43.8710   -8.8670 C.3     2  LIG2        0.0091
      5    C       12.0720   42.4790   -9.1800 C.3     2  LIG2        0.0782
      6    C       10.5270   42.5830   -9.3380 C.3     2  LIG2        0.0091
      7    C       10.1380   43.6260  -10.4170 C.3     2  LIG2        0.0005
      8    C       12.4300   41.4460   -8.1730 C.2     2  LIG2        0.2413
      9    O       13.4200   41.6420   -7.4260 O.2     2  LIG2       -0.2733
     10    N       11.6960   40.2980   -8.0780 N.am    2  LIG2       -0.1952
     11    C       11.9220   39.2090   -7.1720 C.3     2  LIG2        0.2020
     12    C       13.0790   38.2880   -7.6630 C.3     2  LIG2        0.0596
     13    C       13.3630   38.3960   -9.1230 C.ar    2  LIG2       -0.0199
     14    C       14.3310   39.3060   -9.6130 C.ar    2  LIG2       -0.0042
     15    C       14.6060   39.3880  -10.9940 C.ar    2  LIG2       -0.0003
     16    C       13.9120   38.5690  -11.9020 C.ar    2  LIG2       -0.0000
     17    C       12.9420   37.6670  -11.4300 C.ar    2  LIG2       -0.0003
     18    C       12.6730   37.5800  -10.0510 C.ar    2  LIG2       -0.0042
     19    C       10.6890   38.4030   -6.9880 C.2     2  LIG2        0.3845
     20    O        9.4770   39.0030   -6.8890 O.co2   2  LIG2       -0.2437
     21    O       10.7460   37.1560   -6.8950 O.co2   2  LIG2       -0.2437
@<TRIPOS>BOND
     1    16    17   ar
     2    16    15   ar
     3    17    18   ar
     4     1     2    1
     5    15    14   ar
     6     7     2    1
     7     7     6    1
     8     2     3    1
     9    18    13   ar
    10     3     4    1
    11    14    13   ar
    12     6     5    1
    13     5     4    1
    14     5     8    1
    15    13    12    1
    16     8    10   am
    17     8     9    2
    18    10    11    1
    19    12    11    1
    20    11    19    1
    21    19    21   ar
    22    19    20   ar
@<TRIPOS>MOLECULE
ligand_07937df439_1_run_9.pdb
 13 13 0 0 0
SMALL
GASTEIGER

@<TRIPOS>ATOM
      1    O       10.9490   39.2660   -6.7020 O.2     2  LIG2       -0.1310
      2    N       11.7270   40.1270   -7.2140 N.pl3   2  LIG2        0.0350
      3    O       12.1950   40.9250   -6.4980 O.2     2  LIG2       -0.1310
      4    C       11.9740   40.1460   -8.5910 C.3     2  LIG2        0.2015
      5    C       13.4790   39.8890   -8.8790 C.3     2  LIG2        0.1008
      6    C       13.8880   38.4660   -9.0350 C.2     2  LIG2        0.1752
      7    O       14.1940   37.8270   -7.9990 O.2     2  LIG2       -0.2913
      8    C       13.9480   37.7980  -10.3040 C.ar    2  LIG2        0.0348
      9    C       14.2900   36.4230  -10.4240 C.ar    2  LIG2        0.0028
     10    C       14.3420   35.7840  -11.6780 C.ar    2  LIG2        0.0001
     11    C       14.0550   36.5080  -12.8470 C.ar    2  LIG2        0.0000
     12    C       13.7150   37.8670  -12.7600 C.ar    2  LIG2        0.0001
     13    C       13.6630   38.5000  -11.5050 C.ar    2  LIG2        0.0028
@<TRIPOS>BOND
     1    11    12   ar
     2    11    10   ar
     3    12    13   ar
     4    10     9   ar
     5    13     8   ar
     6     9     8   ar
     7     8     6    1
     8     6     5    1
     9     6     7    2
    10     5     4    1
    11     4     2    1
    12     2     1    2
    13     2     3    2
@<TRIPOS>MOLECULE
ligand_b7e5dce9e2_1_run_4.pdb
 18 19 0 0 0
SMALL
GASTEIGER

@<TRIPOS>ATOM
      1    O        9.2070   39.0500   -6.7020 O.3     2  LIG2       -0.4026
      2    N       10.4220   39.3510   -7.0750 N.am    2  LIG2       -0.2029
      3    C       11.3450   38.4050   -7.3700 C.2     2  LIG2        0.0875
      4    O       11.0280   37.1920   -7.3320 O.2     2  LIG2       -0.5395
      5    C       12.7390   38.7780   -7.7080 C.3     2  LIG2        0.0599
      6    C       12.9430   39.3800   -9.1380 C.3     2  LIG2        0.0509
      7    C       13.3800   38.3500  -10.1360 C.ar    2  LIG2       -0.0180
      8    C       13.2950   38.6200  -11.5240 C.ar    2  LIG2       -0.0039
      9    C       13.6820   37.6600  -12.4750 C.ar    2  LIG2       -0.0003
     10    C       14.1680   36.4120  -12.0540 C.ar    2  LIG2       -0.0000
     11    C       14.2660   36.1210  -10.6820 C.ar    2  LIG2       -0.0003
     12    C       13.8730   37.0830   -9.7330 C.ar    2  LIG2       -0.0039
     13    C       13.8500   40.5800   -9.2090 C.ar    2  LIG2       -0.0180
     14    C       13.3300   41.8680   -8.9270 C.ar    2  LIG2       -0.0039
     15    C       14.1420   43.0150   -9.0020 C.ar    2  LIG2       -0.0003
     16    C       15.4910   42.8950   -9.3740 C.ar    2  LIG2       -0.0000
     17    C       16.0310   41.6310   -9.6640 C.ar    2  LIG2       -0.0003
     18    C       15.2150   40.4880   -9.5890 C.ar    2  LIG2       -0.0039
@<TRIPOS>BOND
     1     9    10   ar
     2     9     8   ar
     3    10    11   ar
     4     8     7   ar
     5    11    12   ar
     6     7    12   ar
     7     7     6    1
     8    17    18   ar
     9    17    16   ar
    10    18    13   ar
    11    16    15   ar
    12    13     6    1
    13    13    14   ar
    14     6     5    1
    15    15    14   ar
    16     5     3    1
    17     3     4    2
    18     3     2   am
    19     2     1    1
@<TRIPOS>MOLECULE
ligand_d6ba968dbe_1_run_1.pdb
 14 14 0 0 0
SMALL
GASTEIGER

@<TRIPOS>ATOM
      1    C       11.4360   41.4520   -9.0700 C.3     2  LIG2        0.0322
      2    C       11.9900   40.0860   -8.5740 C.3     2  LIG2        0.1739
      3    C       13.5080   39.8930   -8.9110 C.3     2  LIG2        0.0986
      4    C       13.8940   38.4700   -9.1380 C.2     2  LIG2        0.1752
      5    O       14.2010   37.8140   -8.1120 O.2     2  LIG2       -0.2913
      6    C       13.9500   37.8360  -10.4240 C.ar    2  LIG2        0.0348
      7    C       13.6940   38.5430  -11.6290 C.ar    2  LIG2        0.0028
      8    C       13.7660   37.9080  -12.8830 C.ar    2  LIG2        0.0001
      9    C       14.0760   36.5420  -12.9640 C.ar    2  LIG2        0.0000
     10    C       14.3180   35.8130  -11.7880 C.ar    2  LIG2        0.0001
     11    C       14.2600   36.4530  -10.5370 C.ar    2  LIG2        0.0028
     12    N       11.7330   39.9270   -7.2000 N.pl3   2  LIG2        0.0328
     13    O       10.7010   39.3120   -6.7820 O.2     2  LIG2       -0.1310
     14    O       12.4240   40.3970   -6.3830 O.2     2  LIG2       -0.1310
@<TRIPOS>BOND
     1     9     8   ar
     2     9    10   ar
     3     8     7   ar
     4    10    11   ar
     5     7     6   ar
     6    11     6   ar
     7     6     4    1
     8     4     3    1
     9     4     5    2
    10     1     2    1
    11     3     2    1
    12     2    12    1
    13    12    13    2
    14    12    14    2
@<TRIPOS>MOLECULE
ligand_97f425cd0_1_run_9.pdb
 16 16 0 0 0
SMALL
GASTEIGER

@<TRIPOS>ATOM
      1    C       10.3880   42.1290   -9.2570 C.3     2  LIG2        0.0022
      2    C       11.8970   41.9070   -8.9520 C.3     2  LIG2        0.0280
      3    C       12.7340   42.4000  -10.1710 C.3     2  LIG2        0.0022
      4    C       12.1820   40.4140   -8.5310 C.3     2  LIG2        0.1738
      5    C       13.6830   39.9940   -8.6980 C.3     2  LIG2        0.0986
      6    C       13.9730   38.5500   -8.9440 C.2     2  LIG2        0.1752
      7    O       14.2050   37.8180   -7.9510 O.2     2  LIG2       -0.2913
      8    C       13.9600   37.9610  -10.2540 C.ar    2  LIG2        0.0348
      9    C       14.1840   36.5710  -10.4590 C.ar    2  LIG2        0.0028
     10    C       14.1810   36.0060  -11.7450 C.ar    2  LIG2        0.0001
     11    C       13.9510   36.8150  -12.8690 C.ar    2  LIG2        0.0000
     12    C       13.7180   38.1910  -12.7010 C.ar    2  LIG2        0.0001
     13    C       13.7210   38.7540  -11.4110 C.ar    2  LIG2        0.0028
     14    N       11.7770   40.1780   -7.2000 N.pl3   2  LIG2        0.0328
     15    O       10.9250   39.2820   -6.9080 O.2     2  LIG2       -0.1310
     16    O       12.2070   40.7960   -6.3060 O.2     2  LIG2       -0.1310
@<TRIPOS>BOND
     1    11    12   ar
     2    11    10   ar
     3    12    13   ar
     4    10     9   ar
     5    13     8   ar
     6     9     8   ar
     7     8     6    1
     8     3     2    1
     9     1     2    1
    10     2     4    1
    11     6     5    1
    12     6     7    2
    13     5     4    1
    14     4    14    1
    15    14    15    2
    16    14    16    2
@<TRIPOS>MOLECULE
ligand_a8294a0a1c_1_run_3.pdb
 14 14 0 0 0
SMALL
GASTEIGER

@<TRIPOS>ATOM
      1    C       12.6240   41.2650   -9.1700 C.3     2  LIG2        0.0322
      2    C       12.8320   40.0860   -8.1790 C.3     2  LIG2        0.1739
      3    C       12.3640   38.7200   -8.7730 C.3     2  LIG2        0.0986
      4    C       13.5060   37.8130   -9.0760 C.2     2  LIG2        0.1752
      5    O       14.2500   37.5480   -8.1000 O.2     2  LIG2       -0.2913
      6    C       13.8010   37.2510  -10.3650 C.ar    2  LIG2        0.0348
      7    C       14.7000   36.1640  -10.5410 C.ar    2  LIG2        0.0028
      8    C       15.0040   35.6640  -11.8210 C.ar    2  LIG2        0.0001
      9    C       14.4070   36.2320  -12.9580 C.ar    2  LIG2        0.0000
     10    C       13.4940   37.2890  -12.8130 C.ar    2  LIG2        0.0001
     11    C       13.1970   37.7880  -11.5340 C.ar    2  LIG2        0.0028
     12    N       12.1960   40.3510   -6.9510 N.pl3   2  LIG2        0.0328
     13    O       11.3130   39.5690   -6.4800 O.2     2  LIG2       -0.1310
     14    O       12.4600   41.2940   -6.3140 O.2     2  LIG2       -0.1310
@<TRIPOS>BOND
     1     9    10   ar
     2     9     8   ar
     3    10    11   ar
     4     8     7   ar
     5    11     6   ar
     6     7     6   ar
     7     6     4    1
     8     1     2    1
     9     4     3    1
    10     4     5    2
    11     3     2    1
    12     2    12    1
    13    12    13    2
    14    12    14    2
@<TRIPOS>MOLECULE
ligand_2c545ef4c1_1_run_9.pdb
 22 23 0 0 0
SMALL
GASTEIGER

@<TRIPOS>ATOM
      1    C       12.7220   46.3890  -10.6310 C.3     2  LIG2        0.0310
      2    C       12.4930   45.2080   -9.7630 C.ar    2  LIG2       -0.0225
      3    C       11.4000   44.3460   -9.9660 C.ar    2  LIG2       -0.0088
      4    C       11.1800   43.2120   -9.1480 C.ar    2  LIG2       -0.0263
      5    C       12.1050   42.9150   -8.0930 C.ar    2  LIG2       -0.0278
      6    C       11.9260   41.6740   -7.2550 C.3     2  LIG2        0.0590
      7    C       12.0840   40.3360   -8.0510 C.3     2  LIG2        0.2020
      8    N       13.4690   40.0030   -8.2030 N.am    2  LIG2       -0.1952
      9    C       14.3530   40.4270   -9.1510 C.2     2  LIG2        0.2413
     10    O       15.5000   39.9350   -9.0390 O.2     2  LIG2       -0.2733
     11    C       14.0620   41.3890  -10.2520 C.3     2  LIG2        0.0782
     12    C       13.1010   40.8150  -11.3110 C.3     2  LIG2        0.0091
     13    C       13.2140   41.7990  -12.4870 C.3     2  LIG2        0.0005
     14    C       14.6800   42.2850  -12.4700 C.3     2  LIG2        0.0005
     15    C       15.2700   41.8530  -11.1080 C.3     2  LIG2        0.0091
     16    C       11.4410   39.1780   -7.3820 C.2     2  LIG2        0.3845
     17    O       10.7750   39.2840   -6.2050 O.co2   2  LIG2       -0.2437
     18    O       11.4930   38.0420   -7.9070 O.co2   2  LIG2       -0.2437
     19    C       13.1980   43.8130   -7.8560 C.ar    2  LIG2       -0.0263
     20    C       13.3770   44.9300   -8.7060 C.ar    2  LIG2       -0.0088
     21    C       14.1660   43.6480   -6.7310 C.3     2  LIG2        0.0307
     22    C        9.9620   42.3920   -9.4370 C.3     2  LIG2        0.0307
@<TRIPOS>BOND
     1    13    14    1
     2    13    12    1
     3    14    15    1
     4    12    11    1
     5    15    11    1
     6     1     2    1
     7    11     9    1
     8     3     2   ar
     9     3     4   ar
    10     2    20   ar
    11    22     4    1
    12     9    10    2
    13     9     8   am
    14     4     5   ar
    15    20    19   ar
    16     8     7    1
    17     5    19   ar
    18     5     6    1
    19     7    16    1
    20     7     6    1
    21    18    16   ar
    22    19    21    1
    23    16    17   ar
@<TRIPOS>MOLECULE
ligand_a13603ff4a_1_run_8.pdb
 13 13 0 0 0
SMALL
GASTEIGER

@<TRIPOS>ATOM
      1    C       13.5090   42.1290   -7.2710 C.3     2  LIG2        0.0008
      2    C       12.3990   41.2560   -7.9050 C.3     2  LIG2        0.0107
      3    C       12.6560   39.7210   -7.7720 C.3     2  LIG2        0.0675
      4    C       11.4810   39.0020   -7.2000 C.2     2  LIG2        0.0905
      5    O       11.5610   37.7970   -6.8640 O.2     2  LIG2       -0.5392
      6    N       10.2860   39.6400   -7.1170 N.am    2  LIG2       -0.2026
      7    O        9.2000   39.0500   -6.7000 O.3     2  LIG2       -0.4026
      8    C       13.1480   39.1320   -9.0640 C.ar    2  LIG2       -0.0165
      9    C       13.3720   39.9330  -10.2120 C.ar    2  LIG2       -0.0039
     10    C       13.8860   39.3770  -11.3980 C.ar    2  LIG2       -0.0003
     11    C       14.1800   38.0050  -11.4610 C.ar    2  LIG2       -0.0000
     12    C       13.9510   37.1890  -10.3400 C.ar    2  LIG2       -0.0003
     13    C       13.4370   37.7480   -9.1560 C.ar    2  LIG2       -0.0039
@<TRIPOS>BOND
     1    11    10   ar
     2    11    12   ar
     3    10     9   ar
     4    12    13   ar
     5     9     8   ar
     6    13     8   ar
     7     8     3    1
     8     2     3    1
     9     2     1    1
    10     3     4    1
    11     4     6   am
    12     4     5    2
    13     6     7    1
@<TRIPOS>MOLECULE
ligand_153698eba3_1_run_7.pdb
 13 13 0 0 0
SMALL
GASTEIGER

@<TRIPOS>ATOM
      1    C       13.5010   37.7140   -8.3160 C.3     2  LIG2        0.0071
      2    C       12.7530   38.9320   -7.6990 C.3     2  LIG2        0.0497
      3    C       12.6580   40.1440   -8.6890 C.3     2  LIG2        0.0327
      4    C       13.3490   41.3850   -8.2360 C.ar    2  LIG2       -0.0218
      5    C       12.8130   42.1530   -7.1740 C.ar    2  LIG2       -0.0043
      6    C       13.4530   43.3270   -6.7370 C.ar    2  LIG2       -0.0003
      7    C       14.6480   43.7440   -7.3470 C.ar    2  LIG2       -0.0000
      8    C       15.1950   42.9920   -8.4020 C.ar    2  LIG2       -0.0003
      9    C       14.5480   41.8240   -8.8470 C.ar    2  LIG2       -0.0043
     10    C       11.4230   38.4890   -7.1740 C.2     2  LIG2        0.0868
     11    O       11.2410   37.3360   -6.7130 O.2     2  LIG2       -0.5396
     12    N       10.3800   39.3550   -7.1730 N.am    2  LIG2       -0.2030
     13    O        9.2010   39.0520   -6.7000 O.3     2  LIG2       -0.4026
@<TRIPOS>BOND
     1     9     8   ar
     2     9     4   ar
     3     3     4    1
     4     3     2    1
     5     8     7   ar
     6     1     2    1
     7     4     5   ar
     8     2    10    1
     9     7     6   ar
    10     5     6   ar
    11    10    12   am
    12    10    11    2
    13    12    13    1
@<TRIPOS>MOLECULE
ligand_1a14893726_1_run_5.pdb
 13 13 0 0 0
SMALL
GASTEIGER

@<TRIPOS>ATOM
      1    C       13.7020   37.8890   -7.7930 C.3     2  LIG2        0.0071
      2    C       12.5950   38.9220   -8.1420 C.3     2  LIG2        0.0497
      3    C       13.0110   40.3680   -7.7180 C.3     2  LIG2        0.0327
      4    C       12.9110   41.3540   -8.8300 C.ar    2  LIG2       -0.0218
      5    C       11.7450   42.1380   -8.9870 C.ar    2  LIG2       -0.0043
      6    C       11.6220   43.0360  -10.0630 C.ar    2  LIG2       -0.0003
      7    C       12.6690   43.1690  -10.9900 C.ar    2  LIG2       -0.0000
      8    C       13.8450   42.4130  -10.8360 C.ar    2  LIG2       -0.0003
      9    C       13.9650   41.5090   -9.7630 C.ar    2  LIG2       -0.0043
     10    C       11.2930   38.4900   -7.5630 C.2     2  LIG2        0.0868
     11    O       11.0780   37.2690   -7.3760 O.2     2  LIG2       -0.5396
     12    N       10.3440   39.3960   -7.2230 N.am    2  LIG2       -0.2030
     13    O        9.2000   39.0500   -6.7000 O.3     2  LIG2       -0.4026
@<TRIPOS>BOND
     1     7     8   ar
     2     7     6   ar
     3     8     9   ar
     4     6     5   ar
     5     9     4   ar
     6     5     4   ar
     7     4     3    1
     8     2     1    1
     9     2     3    1
    10     2    10    1
    11    10    11    2
    12    10    12   am
    13    12    13    1
