@<TRIPOS>MOLECULE
ligand_1a14893726_1_run_5.pdb
 13 13 0 0 0
SMALL
GASTEIGER

@<TRIPOS>ATOM
      1    C       13.7020   37.8890   -7.7930 C.3     2  LIG2        0.0071
      2    C       12.5950   38.9220   -8.1420 C.3     2  LIG2        0.0497
      3    C       13.0110   40.3680   -7.7180 C.3     2  LIG2        0.0327
      4    C       12.9110   41.3540   -8.8300 C.ar    2  LIG2       -0.0218
      5    C       11.7450   42.1380   -8.9870 C.ar    2  LIG2       -0.0043
      6    C       11.6220   43.0360  -10.0630 C.ar    2  LIG2       -0.0003
      7    C       12.6690   43.1690  -10.9900 C.ar    2  LIG2       -0.0000
      8    C       13.8450   42.4130  -10.8360 C.ar    2  LIG2       -0.0003
      9    C       13.9650   41.5090   -9.7630 C.ar    2  LIG2       -0.0043
     10    C       11.2930   38.4900   -7.5630 C.2     2  LIG2        0.0868
     11    O       11.0780   37.2690   -7.3760 O.2     2  LIG2       -0.5396
     12    N       10.3440   39.3960   -7.2230 N.am    2  LIG2       -0.2030
     13    O        9.2000   39.0500   -6.7000 O.3     2  LIG2       -0.4026
@<TRIPOS>BOND
     1     7     8   ar
     2     7     6   ar
     3     8     9   ar
     4     6     5   ar
     5     9     4   ar
     6     5     4   ar
     7     4     3    1
     8     2     1    1
     9     2     3    1
    10     2    10    1
    11    10    11    2
    12    10    12   am
    13    12    13    1
@<TRIPOS>MOLECULE
ligand_1a14893726_1_run_12.pdb
 13 13 0 0 0
SMALL
GASTEIGER

@<TRIPOS>ATOM
      1    C       13.4090   40.7650   -8.1380 C.3     2  LIG2        0.0071
      2    C       12.5540   39.4680   -8.1820 C.3     2  LIG2        0.0497
      3    C       12.1270   39.1160   -9.6430 C.3     2  LIG2        0.0327
      4    C       13.1450   38.3100  -10.3730 C.ar    2  LIG2       -0.0218
      5    C       13.7820   38.8330  -11.5220 C.ar    2  LIG2       -0.0043
      6    C       14.7070   38.0600  -12.2460 C.ar    2  LIG2       -0.0003
      7    C       15.0160   36.7570  -11.8230 C.ar    2  LIG2       -0.0000
      8    C       14.4090   36.2290  -10.6700 C.ar    2  LIG2       -0.0003
      9    C       13.4770   37.0000   -9.9500 C.ar    2  LIG2       -0.0043
     10    C       11.4050   39.5820   -7.2420 C.2     2  LIG2        0.0868
     11    O       11.5250   40.2790   -6.2060 O.2     2  LIG2       -0.5396
     12    N       10.2300   38.9570   -7.4960 N.am    2  LIG2       -0.2030
     13    O        9.2000   39.0500   -6.7000 O.3     2  LIG2       -0.4026
@<TRIPOS>BOND
     1     6     7   ar
     2     6     5   ar
     3     7     8   ar
     4     5     4   ar
     5     8     9   ar
     6     4     9   ar
     7     4     3    1
     8     3     2    1
     9     2     1    1
    10     2    10    1
    11    12    10   am
    12    12    13    1
    13    10    11    2
@<TRIPOS>MOLECULE
ligand_1a14893726_1_run_8.pdb
 13 13 0 0 0
SMALL
GASTEIGER

@<TRIPOS>ATOM
      1    C       13.2510   38.4440   -7.3910 C.3     2  LIG2        0.0071
      2    C       12.4650   39.3280   -8.3990 C.3     2  LIG2        0.0497
      3    C       13.3050   40.5670   -8.8460 C.3     2  LIG2        0.0327
      4    C       13.3150   40.7670  -10.3220 C.ar    2  LIG2       -0.0218
      5    C       14.0140   39.8670  -11.1600 C.ar    2  LIG2       -0.0043
      6    C       14.0700   40.0760  -12.5500 C.ar    2  LIG2       -0.0003
      7    C       13.4180   41.1820  -13.1200 C.ar    2  LIG2       -0.0000
      8    C       12.7000   42.0740  -12.3050 C.ar    2  LIG2       -0.0003
      9    C       12.6510   41.8690  -10.9120 C.ar    2  LIG2       -0.0043
     10    C       11.1360   39.6890   -7.8330 C.2     2  LIG2        0.0868
     11    O       10.7110   40.8620   -7.9620 O.2     2  LIG2       -0.5396
     12    N       10.3750   38.7680   -7.1940 N.am    2  LIG2       -0.2030
     13    O        9.2000   39.0500   -6.7000 O.3     2  LIG2       -0.4026
@<TRIPOS>BOND
     1     7     6   ar
     2     7     8   ar
     3     6     5   ar
     4     8     9   ar
     5     5     4   ar
     6     9     4   ar
     7     4     3    1
     8     3     2    1
     9     2    10    1
    10     2     1    1
    11    11    10    2
    12    10    12   am
    13    12    13    1
