@<TRIPOS>MOLECULE
ligand_a13603ff4a_1_run_8.pdb
 13 13 0 0 0
SMALL
GASTEIGER

@<TRIPOS>ATOM
      1    C       13.5090   42.1290   -7.2710 C.3     2  LIG2        0.0008
      2    C       12.3990   41.2560   -7.9050 C.3     2  LIG2        0.0107
      3    C       12.6560   39.7210   -7.7720 C.3     2  LIG2        0.0675
      4    C       11.4810   39.0020   -7.2000 C.2     2  LIG2        0.0905
      5    O       11.5610   37.7970   -6.8640 O.2     2  LIG2       -0.5392
      6    N       10.2860   39.6400   -7.1170 N.am    2  LIG2       -0.2026
      7    O        9.2000   39.0500   -6.7000 O.3     2  LIG2       -0.4026
      8    C       13.1480   39.1320   -9.0640 C.ar    2  LIG2       -0.0165
      9    C       13.3720   39.9330  -10.2120 C.ar    2  LIG2       -0.0039
     10    C       13.8860   39.3770  -11.3980 C.ar    2  LIG2       -0.0003
     11    C       14.1800   38.0050  -11.4610 C.ar    2  LIG2       -0.0000
     12    C       13.9510   37.1890  -10.3400 C.ar    2  LIG2       -0.0003
     13    C       13.4370   37.7480   -9.1560 C.ar    2  LIG2       -0.0039
@<TRIPOS>BOND
     1    11    10   ar
     2    11    12   ar
     3    10     9   ar
     4    12    13   ar
     5     9     8   ar
     6    13     8   ar
     7     8     3    1
     8     2     3    1
     9     2     1    1
    10     3     4    1
    11     4     6   am
    12     4     5    2
    13     6     7    1
@<TRIPOS>MOLECULE
ligand_a13603ff4a_1_run_1.pdb
 13 13 0 0 0
SMALL
GASTEIGER

@<TRIPOS>ATOM
      1    C       13.7030   37.5920  -10.1750 C.3     2  LIG2        0.0008
      2    C       13.5080   38.0330   -8.7030 C.3     2  LIG2        0.0107
      3    C       12.4000   39.1180   -8.5150 C.3     2  LIG2        0.0675
      4    C       11.3330   38.6730   -7.5740 C.2     2  LIG2        0.0905
      5    O       11.4280   37.5860   -6.9560 O.2     2  LIG2       -0.5392
      6    N       10.2050   39.4170   -7.4460 N.am    2  LIG2       -0.2026
      7    O        9.2000   39.0500   -6.7000 O.3     2  LIG2       -0.4026
      8    C       12.9930   40.4520   -8.1620 C.ar    2  LIG2       -0.0165
      9    C       12.7540   41.0670   -6.9060 C.ar    2  LIG2       -0.0039
     10    C       13.3610   42.2910   -6.5680 C.ar    2  LIG2       -0.0003
     11    C       14.2160   42.9280   -7.4830 C.ar    2  LIG2       -0.0000
     12    C       14.4550   42.3450   -8.7380 C.ar    2  LIG2       -0.0003
     13    C       13.8460   41.1220   -9.0730 C.ar    2  LIG2       -0.0039
@<TRIPOS>BOND
     1     1     2    1
     2    13    12   ar
     3    13     8   ar
     4    12    11   ar
     5     2     3    1
     6     3     8    1
     7     3     4    1
     8     8     9   ar
     9     4     6   am
    10     4     5    2
    11    11    10   ar
    12     6     7    1
    13     9    10   ar
@<TRIPOS>MOLECULE
ligand_a13603ff4a_1_run_7.pdb
 13 13 0 0 0
SMALL
GASTEIGER

@<TRIPOS>ATOM
      1    C       13.4030   42.6100   -6.3220 C.3     2  LIG2        0.0008
      2    C       12.1430   41.8550   -6.8130 C.3     2  LIG2        0.0107
      3    C       12.4640   40.5450   -7.6010 C.3     2  LIG2        0.0675
      4    C       11.3760   39.5330   -7.4750 C.2     2  LIG2        0.0905
      5    O       11.4660   38.4150   -8.0350 O.2     2  LIG2       -0.5392
      6    N       10.2390   39.8570   -6.8100 N.am    2  LIG2       -0.2026
      7    O        9.2170   39.0500   -6.7260 O.3     2  LIG2       -0.4026
      8    C       12.8460   40.8410   -9.0240 C.ar    2  LIG2       -0.0165
      9    C       12.2820   41.9280   -9.7380 C.ar    2  LIG2       -0.0039
     10    C       12.6900   42.2260  -11.0510 C.ar    2  LIG2       -0.0003
     11    C       13.6680   41.4360  -11.6790 C.ar    2  LIG2       -0.0000
     12    C       14.2290   40.3450  -10.9960 C.ar    2  LIG2       -0.0003
     13    C       13.8180   40.0500   -9.6840 C.ar    2  LIG2       -0.0039
@<TRIPOS>BOND
     1    11    10   ar
     2    11    12   ar
     3    10     9   ar
     4    12    13   ar
     5     9     8   ar
     6    13     8   ar
     7     8     3    1
     8     5     4    2
     9     3     4    1
    10     3     2    1
    11     4     6   am
    12     2     1    1
    13     6     7    1
