@<TRIPOS>MOLECULE
ligand_246295c4f9_1_run_3.pdb
 15 15 0 0 0
SMALL
GASTEIGER

@<TRIPOS>ATOM
      1    C       11.5580   42.0270   -9.7960 C.3     2  LIG2        0.0022
      2    C       11.6760   41.3230   -8.4230 C.3     2  LIG2        0.0300
      3    C       11.9900   39.7970   -8.5330 C.3     2  LIG2        0.1738
      4    C       13.5260   39.5130   -8.6580 C.3     2  LIG2        0.0986
      5    C       13.9250   38.1490   -9.1290 C.2     2  LIG2        0.1752
      6    O       14.2370   37.3030   -8.2550 O.2     2  LIG2       -0.2913
      7    C       13.9480   37.7530  -10.5100 C.ar    2  LIG2        0.0348
      8    C       13.6970   38.6690  -11.5670 C.ar    2  LIG2        0.0028
      9    C       13.7050   38.2580  -12.9140 C.ar    2  LIG2        0.0001
     10    C       13.9640   36.9170  -13.2400 C.ar    2  LIG2        0.0000
     11    C       14.2260   35.9910  -12.2170 C.ar    2  LIG2        0.0001
     12    C       14.2210   36.4050  -10.8710 C.ar    2  LIG2        0.0028
     13    N       11.4230   39.0730   -7.4700 N.pl3   2  LIG2        0.0328
     14    O       10.9610   39.6730   -6.4500 O.2     2  LIG2       -0.1310
     15    O       11.3490   37.9070   -7.4770 O.2     2  LIG2       -0.1310
@<TRIPOS>BOND
     1    10     9   ar
     2    10    11   ar
     3     9     8   ar
     4    11    12   ar
     5     8     7   ar
     6    12     7   ar
     7     7     5    1
     8     1     2    1
     9     5     4    1
    10     5     6    2
    11     4     3    1
    12     3     2    1
    13     3    13    1
    14    15    13    2
    15    13    14    2
@<TRIPOS>MOLECULE
ligand_246295c4f9_1_run_5.pdb
 15 15 0 0 0
SMALL
GASTEIGER

@<TRIPOS>ATOM
      1    C       13.6180   43.5030   -6.9260 C.3     2  LIG2        0.0022
      2    C       12.1650   43.5930   -7.4500 C.3     2  LIG2        0.0300
      3    C       11.8610   42.5920   -8.6100 C.3     2  LIG2        0.1738
      4    C       10.8990   41.4380   -8.1640 C.3     2  LIG2        0.0986
      5    C       11.5380   40.1670   -7.7000 C.2     2  LIG2        0.1752
      6    O       11.3060   39.7970   -6.5230 O.2     2  LIG2       -0.2913
      7    C       12.3740   39.3420   -8.5280 C.ar    2  LIG2        0.0348
      8    C       12.6800   39.6800   -9.8740 C.ar    2  LIG2        0.0028
      9    C       13.4860   38.8480  -10.6760 C.ar    2  LIG2        0.0001
     10    C       14.0100   37.6570  -10.1510 C.ar    2  LIG2        0.0000
     11    C       13.7350   37.3030   -8.8210 C.ar    2  LIG2        0.0001
     12    C       12.9310   38.1360   -8.0200 C.ar    2  LIG2        0.0028
     13    N       11.3710   43.2530   -9.7500 N.pl3   2  LIG2        0.0328
     14    O       11.8240   44.3910  -10.0860 O.2     2  LIG2       -0.1310
     15    O       10.5390   42.7920  -10.4300 O.2     2  LIG2       -0.1310
@<TRIPOS>BOND
     1     9    10   ar
     2     9     8   ar
     3    15    13    2
     4    10    11   ar
     5    14    13    2
     6     8     7   ar
     7    13     3    1
     8    11    12   ar
     9     3     4    1
    10     3     2    1
    11     7    12   ar
    12     7     5    1
    13     4     5    1
    14     5     6    2
    15     2     1    1
@<TRIPOS>MOLECULE
ligand_246295c4f9_1_run_10.pdb
 15 15 0 0 0
SMALL
GASTEIGER

@<TRIPOS>ATOM
      1    C       10.9560   39.0620   -6.9440 C.3     2  LIG2        0.0022
      2    C       11.4500   40.2720   -7.7730 C.3     2  LIG2        0.0300
      3    C       13.0060   40.3830   -7.8430 C.3     2  LIG2        0.1738
      4    C       13.5780   39.8740   -9.2110 C.3     2  LIG2        0.0986
      5    C       14.0050   38.4410   -9.2740 C.2     2  LIG2        0.1752
      6    O       14.3400   37.8880   -8.1980 O.2     2  LIG2       -0.2913
      7    C       14.0290   37.6640  -10.4830 C.ar    2  LIG2        0.0348
      8    C       14.4170   36.2970  -10.5000 C.ar    2  LIG2        0.0028
      9    C       14.4520   35.5580  -11.6980 C.ar    2  LIG2        0.0001
     10    C       14.0980   36.1660  -12.9120 C.ar    2  LIG2        0.0000
     11    C       13.7000   37.5130  -12.9250 C.ar    2  LIG2        0.0001
     12    C       13.6630   38.2500  -11.7260 C.ar    2  LIG2        0.0028
     13    N       13.4470   41.6870   -7.5600 N.pl3   2  LIG2        0.0328
     14    O       14.4250   42.1930   -8.1920 O.2     2  LIG2       -0.1310
     15    O       12.9410   42.3540   -6.7440 O.2     2  LIG2       -0.1310
@<TRIPOS>BOND
     1    11    10   ar
     2    11    12   ar
     3    10     9   ar
     4    12     7   ar
     5     9     8   ar
     6     8     7   ar
     7     7     5    1
     8     5     4    1
     9     5     6    2
    10     4     3    1
    11    14    13    2
    12     3     2    1
    13     3    13    1
    14     2     1    1
    15    13    15    2
