@<TRIPOS>MOLECULE
ligand_58672ea592_1_run_7.pdb
 15 15 0 0 0
SMALL
GASTEIGER

@<TRIPOS>ATOM
      1    C       13.2060   42.1830   -7.0900 C.3     2  LIG2        0.0022
      2    C       12.0820   41.2800   -7.6500 C.3     2  LIG2        0.0300
      3    C       12.4830   39.7730   -7.7400 C.3     2  LIG2        0.1738
      4    C       13.0010   39.3830   -9.1660 C.3     2  LIG2        0.0986
      5    C       13.8240   38.1350   -9.2670 C.2     2  LIG2        0.1752
      6    O       14.4510   37.7700   -8.2420 O.2     2  LIG2       -0.2913
      7    C       13.9500   37.3540  -10.4660 C.ar    2  LIG2        0.0348
      8    C       14.6630   36.1260  -10.5000 C.ar    2  LIG2        0.0028
      9    C       14.7590   35.3650  -11.6800 C.ar    2  LIG2        0.0001
     10    C       14.1450   35.8130  -12.8600 C.ar    2  LIG2        0.0000
     11    C       13.4450   37.0300  -12.8600 C.ar    2  LIG2        0.0001
     12    C       13.3520   37.7910  -11.6800 C.ar    2  LIG2        0.0028
     13    N       11.4230   38.9400   -7.3420 N.pl3   2  LIG2        0.0328
     14    O       10.5920   39.2980   -6.4500 O.2     2  LIG2       -0.1310
     15    O       11.2640   37.8870   -7.8200 O.2     2  LIG2       -0.1310
@<TRIPOS>BOND
     1    10    11   ar
     2    10     9   ar
     3    11    12   ar
     4     9     8   ar
     5    12     7   ar
     6     8     7   ar
     7     7     5    1
     8     5     4    1
     9     5     6    2
    10     4     3    1
    11    15    13    2
    12     3     2    1
    13     3    13    1
    14     2     1    1
    15    13    14    2
@<TRIPOS>MOLECULE
ligand_58672ea592_1_run_5.pdb
 15 15 0 0 0
SMALL
GASTEIGER

@<TRIPOS>ATOM
      1    C       10.9630   39.1580   -6.9510 C.3     2  LIG2        0.0022
      2    C       11.8050   40.3510   -7.4630 C.3     2  LIG2        0.0300
      3    C       12.2040   40.2280   -8.9680 C.3     2  LIG2        0.1738
      4    C       13.7160   39.8610   -9.1520 C.3     2  LIG2        0.0986
      5    C       14.0480   38.4050   -9.2640 C.2     2  LIG2        0.1752
      6    O       14.3580   37.7970   -8.2100 O.2     2  LIG2       -0.2913
      7    C       14.0540   37.6790  -10.5040 C.ar    2  LIG2        0.0348
      8    C       14.3750   36.2960  -10.5720 C.ar    2  LIG2        0.0028
      9    C       14.3550   35.5970  -11.7930 C.ar    2  LIG2        0.0001
     10    C       14.0140   36.2620  -12.9810 C.ar    2  LIG2        0.0000
     11    C       13.7050   37.6310  -12.9470 C.ar    2  LIG2        0.0001
     12    C       13.7270   38.3300  -11.7250 C.ar    2  LIG2        0.0028
     13    N       11.8780   41.3970   -9.6780 N.pl3   2  LIG2        0.0328
     14    O       12.5560   41.7790  -10.6810 O.2     2  LIG2       -0.1310
     15    O       10.9660   42.0600   -9.3720 O.2     2  LIG2       -0.1310
@<TRIPOS>BOND
     1    10    11   ar
     2    10     9   ar
     3    11    12   ar
     4     9     8   ar
     5    12     7   ar
     6    14    13    2
     7     8     7   ar
     8     7     5    1
     9    13    15    2
    10    13     3    1
    11     5     4    1
    12     5     6    2
    13     4     3    1
    14     3     2    1
    15     2     1    1
@<TRIPOS>MOLECULE
ligand_58672ea592_1_run_1.pdb
 15 15 0 0 0
SMALL
GASTEIGER

@<TRIPOS>ATOM
      1    C       13.4450   37.7280  -10.1170 C.3     2  LIG2        0.0022
      2    C       13.2160   37.8070   -8.5890 C.3     2  LIG2        0.0300
      3    C       12.2320   38.9450   -8.1680 C.3     2  LIG2        0.1738
      4    C       12.9850   40.2270   -7.6760 C.3     2  LIG2        0.0986
      5    C       13.2980   41.2640   -8.7110 C.2     2  LIG2        0.1752
      6    O       14.4940   41.3790   -9.0740 O.2     2  LIG2       -0.2913
      7    C       12.3170   42.1410   -9.2870 C.ar    2  LIG2        0.0348
      8    C       10.9360   42.0500   -8.9660 C.ar    2  LIG2        0.0028
      9    C        9.9920   42.9320   -9.5250 C.ar    2  LIG2        0.0001
     10    C       10.4040   43.9280  -10.4240 C.ar    2  LIG2        0.0000
     11    C       11.7600   44.0330  -10.7710 C.ar    2  LIG2        0.0001
     12    C       12.7030   43.1490  -10.2120 C.ar    2  LIG2        0.0028
     13    N       11.3180   38.4930   -7.2000 N.pl3   2  LIG2        0.0328
     14    O       10.6790   39.3010   -6.4570 O.2     2  LIG2       -0.1310
     15    O       11.1090   37.3540   -7.0440 O.2     2  LIG2       -0.1310
@<TRIPOS>BOND
     1    11    10   ar
     2    11    12   ar
     3    10     9   ar
     4    12     7   ar
     5     1     2    1
     6     9     8   ar
     7     7     8   ar
     8     7     5    1
     9     6     5    2
    10     5     4    1
    11     2     3    1
    12     3     4    1
    13     3    13    1
    14    13    15    2
    15    13    14    2
