@<TRIPOS>MOLECULE
ligand_acbff919f8_1_run_8.pdb
 22 23 0 0 0
SMALL
GASTEIGER

@<TRIPOS>ATOM
      1    C       15.8460   44.2020   -9.0150 C.3     2  LIG2        0.0310
      2    C       14.6480   43.3450   -8.8410 C.ar    2  LIG2       -0.0225
      3    C       13.8550   42.9570   -9.9330 C.ar    2  LIG2       -0.0088
      4    C       12.7210   42.1290   -9.7720 C.ar    2  LIG2       -0.0263
      5    C       12.3750   41.6490   -8.4670 C.ar    2  LIG2       -0.0278
      6    C       11.2410   40.6710   -8.3210 C.3     2  LIG2        0.0590
      7    C       11.7470   39.2780   -7.8090 C.3     2  LIG2        0.2020
      8    N       12.3680   38.4270   -8.7770 N.am    2  LIG2       -0.1952
      9    C       13.5860   38.5580   -9.3660 C.2     2  LIG2        0.2413
     10    O       14.3510   39.5110   -9.0870 O.2     2  LIG2       -0.2733
     11    C       14.0180   37.5700  -10.3870 C.3     2  LIG2        0.0782
     12    C       14.8470   38.2140  -11.5170 C.3     2  LIG2        0.0091
     13    C       14.8200   37.1630  -12.6410 C.3     2  LIG2        0.0005
     14    C       13.4510   36.4600  -12.5230 C.3     2  LIG2        0.0005
     15    C       12.8830   36.8140  -11.1270 C.3     2  LIG2        0.0091
     16    C       10.7120   38.4970   -7.0980 C.2     2  LIG2        0.3845
     17    O        9.5110   39.0530   -6.8150 O.co2   2  LIG2       -0.2437
     18    O       10.9210   37.3110   -6.7550 O.co2   2  LIG2       -0.2437
     19    C       13.1730   42.0490   -7.3460 C.ar    2  LIG2       -0.0263
     20    C       14.2870   42.8970   -7.5590 C.ar    2  LIG2       -0.0088
     21    C       12.9610   41.6400   -5.9260 C.3     2  LIG2        0.0307
     22    C       11.9350   41.7970  -10.9990 C.3     2  LIG2        0.0307
@<TRIPOS>BOND
     1    13    14    1
     2    13    12    1
     3    14    15    1
     4    12    11    1
     5    15    11    1
     6    22     4    1
     7    11     9    1
     8     3     4   ar
     9     3     2   ar
    10     4     5   ar
    11     9    10    2
    12     9     8   am
    13     1     2    1
    14     2    20   ar
    15     8     7    1
    16     5     6    1
    17     5    19   ar
    18     6     7    1
    19     7    16    1
    20    20    19   ar
    21    19    21    1
    22    16    17   ar
    23    16    18   ar
@<TRIPOS>MOLECULE
ligand_acbff919f8_1_run_5.pdb
 22 23 0 0 0
SMALL
GASTEIGER

@<TRIPOS>ATOM
      1    C       15.7350   44.3050   -9.1410 C.3     2  LIG2        0.0310
      2    C       14.6310   43.3470   -8.8880 C.ar    2  LIG2       -0.0225
      3    C       14.2810   42.9550   -7.5850 C.ar    2  LIG2       -0.0088
      4    C       13.2210   42.0540   -7.3390 C.ar    2  LIG2       -0.0263
      5    C       12.4610   41.5380   -8.4390 C.ar    2  LIG2       -0.0278
      6    C       11.2590   40.6760   -8.1620 C.3     2  LIG2        0.0590
      7    C       11.6790   39.2440   -7.6780 C.3     2  LIG2        0.2020
      8    N       12.2900   38.3940   -8.6520 N.am    2  LIG2       -0.1952
      9    C       13.5470   38.4560   -9.1650 C.2     2  LIG2        0.2413
     10    O       14.3640   39.3330   -8.7980 O.2     2  LIG2       -0.2733
     11    C       13.9630   37.4850  -10.2100 C.3     2  LIG2        0.0782
     12    C       14.8090   38.1400  -11.3210 C.3     2  LIG2        0.0091
     13    C       14.7660   37.1190  -12.4700 C.3     2  LIG2        0.0005
     14    C       13.3820   36.4400  -12.3740 C.3     2  LIG2        0.0005
     15    C       12.8170   36.7700  -10.9720 C.3     2  LIG2        0.0091
     16    C       10.5840   38.4960   -7.0260 C.2     2  LIG2        0.3845
     17    O       10.7480   37.1920   -6.6990 O.co2   2  LIG2       -0.2437
     18    O        9.4940   39.0500   -6.7560 O.co2   2  LIG2       -0.2437
     19    C       12.8190   41.9240   -9.7720 C.ar    2  LIG2       -0.0263
     20    C       13.9030   42.8140   -9.9650 C.ar    2  LIG2       -0.0088
     21    C       12.1350   41.4900  -11.0260 C.3     2  LIG2        0.0307
     22    C       12.9500   41.6860   -5.9160 C.3     2  LIG2        0.0307
@<TRIPOS>BOND
     1    13    14    1
     2    13    12    1
     3    14    15    1
     4    12    11    1
     5    21    19    1
     6    15    11    1
     7    11     9    1
     8    20    19   ar
     9    20     2   ar
    10    19     5   ar
    11     9    10    2
    12     9     8   am
    13     1     2    1
    14     2     3   ar
    15     8     7    1
    16     5     6    1
    17     5     4   ar
    18     6     7    1
    19     7    16    1
    20     3     4   ar
    21     4    22    1
    22    16    18   ar
    23    16    17   ar
@<TRIPOS>MOLECULE
ligand_acbff919f8_1_run_3.pdb
 22 23 0 0 0
SMALL
GASTEIGER

@<TRIPOS>ATOM
      1    C       15.8540   39.7360  -13.3000 C.3     2  LIG2        0.0310
      2    C       15.1280   39.5330  -12.0220 C.ar    2  LIG2       -0.0225
      3    C       14.2730   38.4360  -11.8280 C.ar    2  LIG2       -0.0088
      4    C       13.5910   38.2320  -10.6070 C.ar    2  LIG2       -0.0263
      5    C       13.7880   39.1500   -9.5240 C.ar    2  LIG2       -0.0278
      6    C       13.1550   38.8600   -8.1900 C.3     2  LIG2        0.0590
      7    C       11.6800   39.3890   -8.1280 C.3     2  LIG2        0.2020
      8    N       11.5120   40.7980   -7.9470 N.am    2  LIG2       -0.1952
      9    C       11.6030   41.7910   -8.8710 C.2     2  LIG2        0.2413
     10    O       11.8550   41.5460  -10.0750 O.2     2  LIG2       -0.2733
     11    C       11.4330   43.2050   -8.4500 C.3     2  LIG2        0.0782
     12    C       11.9010   44.2020   -9.5290 C.3     2  LIG2        0.0091
     13    C       12.0480   45.5310   -8.7670 C.3     2  LIG2        0.0005
     14    C       12.4860   45.1460   -7.3370 C.3     2  LIG2        0.0005
     15    C       12.2010   43.6340   -7.1720 C.3     2  LIG2        0.0091
     16    C       10.8410   38.6890   -7.1330 C.2     2  LIG2        0.3845
     17    O        9.5500   39.0520   -6.9500 O.co2   2  LIG2       -0.2437
     18    O       11.3020   37.7440   -6.4520 O.co2   2  LIG2       -0.2437
     19    C       14.6500   40.2780   -9.7190 C.ar    2  LIG2       -0.0263
     20    C       15.2940   40.4480  -10.9680 C.ar    2  LIG2       -0.0088
     21    C       14.9720   41.3240   -8.7030 C.3     2  LIG2        0.0307
     22    C       12.6870   37.0460  -10.5160 C.3     2  LIG2        0.0307
@<TRIPOS>BOND
     1     1     2    1
     2     2     3   ar
     3     2    20   ar
     4     3     4   ar
     5    20    19   ar
     6     4    22    1
     7     4     5   ar
     8    10     9    2
     9    19     5   ar
    10    19    21    1
    11    12    13    1
    12    12    11    1
    13     5     6    1
    14     9    11    1
    15     9     8   am
    16    13    14    1
    17    11    15    1
    18     6     7    1
    19     7     8    1
    20     7    16    1
    21    14    15    1
    22    16    17   ar
    23    16    18   ar
