@<TRIPOS>MOLECULE
ligand_6d36e4b4cc_1_run_1.pdb
 21 22 0 0 0
SMALL
GASTEIGER

@<TRIPOS>ATOM
      1    C       10.4090   46.0240  -11.2750 C.3     2  LIG2        0.0000
      2    C       10.7640   45.0270  -10.1390 C.3     2  LIG2        0.0000
      3    C       12.3080   44.9310   -9.9300 C.3     2  LIG2        0.0005
      4    C       12.7010   43.8710   -8.8670 C.3     2  LIG2        0.0091
      5    C       12.0720   42.4790   -9.1800 C.3     2  LIG2        0.0782
      6    C       10.5270   42.5830   -9.3380 C.3     2  LIG2        0.0091
      7    C       10.1380   43.6260  -10.4170 C.3     2  LIG2        0.0005
      8    C       12.4300   41.4460   -8.1730 C.2     2  LIG2        0.2413
      9    O       13.4200   41.6420   -7.4260 O.2     2  LIG2       -0.2733
     10    N       11.6960   40.2980   -8.0780 N.am    2  LIG2       -0.1952
     11    C       11.9220   39.2090   -7.1720 C.3     2  LIG2        0.2020
     12    C       13.0790   38.2880   -7.6630 C.3     2  LIG2        0.0596
     13    C       13.3630   38.3960   -9.1230 C.ar    2  LIG2       -0.0199
     14    C       14.3310   39.3060   -9.6130 C.ar    2  LIG2       -0.0042
     15    C       14.6060   39.3880  -10.9940 C.ar    2  LIG2       -0.0003
     16    C       13.9120   38.5690  -11.9020 C.ar    2  LIG2       -0.0000
     17    C       12.9420   37.6670  -11.4300 C.ar    2  LIG2       -0.0003
     18    C       12.6730   37.5800  -10.0510 C.ar    2  LIG2       -0.0042
     19    C       10.6890   38.4030   -6.9880 C.2     2  LIG2        0.3845
     20    O        9.4770   39.0030   -6.8890 O.co2   2  LIG2       -0.2437
     21    O       10.7460   37.1560   -6.8950 O.co2   2  LIG2       -0.2437
@<TRIPOS>BOND
     1    16    17   ar
     2    16    15   ar
     3    17    18   ar
     4     1     2    1
     5    15    14   ar
     6     7     2    1
     7     7     6    1
     8     2     3    1
     9    18    13   ar
    10     3     4    1
    11    14    13   ar
    12     6     5    1
    13     5     4    1
    14     5     8    1
    15    13    12    1
    16     8    10   am
    17     8     9    2
    18    10    11    1
    19    12    11    1
    20    11    19    1
    21    19    21   ar
    22    19    20   ar
@<TRIPOS>MOLECULE
ligand_6d36e4b4cc_1_run_1.pdb
 21 22 0 0 0
SMALL
GASTEIGER

@<TRIPOS>ATOM
      1    C       14.2320   46.3020   -7.0520 C.3     2  LIG2        0.0000
      2    C       14.3150   44.7510   -7.0690 C.3     2  LIG2        0.0000
      3    C       15.0030   44.2340   -8.3710 C.3     2  LIG2        0.0005
      4    C       15.0150   42.6850   -8.4640 C.3     2  LIG2        0.0091
      5    C       13.5870   42.0850   -8.2870 C.3     2  LIG2        0.0782
      6    C       12.9340   42.5720   -6.9610 C.3     2  LIG2        0.0091
      7    C       12.9020   44.1200   -6.8810 C.3     2  LIG2        0.0005
      8    C       13.5730   40.6010   -8.3680 C.2     2  LIG2        0.2413
      9    O       14.5680   40.0080   -8.8500 O.2     2  LIG2       -0.2733
     10    N       12.4820   39.9020   -7.9330 N.am    2  LIG2       -0.1952
     11    C       12.3130   38.4770   -7.9560 C.3     2  LIG2        0.2020
     12    C       11.9410   37.9700   -9.3810 C.3     2  LIG2        0.0596
     13    C       13.1170   37.7000  -10.2570 C.ar    2  LIG2       -0.0199
     14    C       13.9100   36.5410  -10.0790 C.ar    2  LIG2       -0.0042
     15    C       15.0100   36.2850  -10.9230 C.ar    2  LIG2       -0.0003
     16    C       15.3350   37.1880  -11.9510 C.ar    2  LIG2       -0.0000
     17    C       14.5620   38.3470  -12.1340 C.ar    2  LIG2       -0.0003
     18    C       13.4600   38.5990  -11.2950 C.ar    2  LIG2       -0.0042
     19    C       11.2730   38.0470   -6.9880 C.2     2  LIG2        0.3845
     20    O       10.8530   36.7580   -6.9490 O.co2   2  LIG2       -0.2437
     21    O       10.7440   38.8700   -6.2080 O.co2   2  LIG2       -0.2437
@<TRIPOS>BOND
     1    17    16   ar
     2    17    18   ar
     3    16    15   ar
     4    18    13   ar
     5    15    14   ar
     6    13    14   ar
     7    13    12    1
     8    12    11    1
     9     9     8    2
    10     4     3    1
    11     4     5    1
    12     3     2    1
    13     8     5    1
    14     8    10   am
    15     5     6    1
    16    11    10    1
    17    11    19    1
    18     2     1    1
    19     2     7    1
    20    19    20   ar
    21    19    21   ar
    22     6     7    1
@<TRIPOS>MOLECULE
ligand_6d36e4b4cc_1_run_12.pdb
 21 22 0 0 0
SMALL
GASTEIGER

@<TRIPOS>ATOM
      1    C       16.6960   36.6300  -13.4150 C.3     2  LIG2        0.0000
      2    C       15.5740   37.5000  -12.7850 C.3     2  LIG2        0.0000
      3    C       16.1510   38.8210  -12.1860 C.3     2  LIG2        0.0005
      4    C       15.0690   39.6690  -11.4640 C.3     2  LIG2        0.0091
      5    C       14.3010   38.8340  -10.3940 C.3     2  LIG2        0.0782
      6    C       13.6920   37.5450  -11.0180 C.3     2  LIG2        0.0091
      7    C       14.7780   36.6890  -11.7180 C.3     2  LIG2        0.0005
      8    C       13.2560   39.6230   -9.6910 C.2     2  LIG2        0.2413
      9    O       13.0210   40.7960  -10.0700 O.2     2  LIG2       -0.2733
     10    N       12.5750   39.0760   -8.6410 N.am    2  LIG2       -0.1952
     11    C       11.5530   39.7110   -7.8580 C.3     2  LIG2        0.2020
     12    C       12.1640   40.6660   -6.7890 C.3     2  LIG2        0.0596
     13    C       12.5410   42.0080   -7.3180 C.ar    2  LIG2       -0.0199
     14    C       11.5730   42.8630   -7.8980 C.ar    2  LIG2       -0.0042
     15    C       11.9350   44.1380   -8.3780 C.ar    2  LIG2       -0.0003
     16    C       13.2700   44.5710   -8.2930 C.ar    2  LIG2       -0.0000
     17    C       14.2440   43.7300   -7.7270 C.ar    2  LIG2       -0.0003
     18    C       13.8810   42.4600   -7.2410 C.ar    2  LIG2       -0.0042
     19    C       10.6910   38.7050   -7.1890 C.2     2  LIG2        0.3845
     20    O        9.4720   39.0500   -6.7040 O.co2   2  LIG2       -0.2437
     21    O       11.0810   37.5260   -7.0370 O.co2   2  LIG2       -0.2437
@<TRIPOS>BOND
     1     1     2    1
     2     2     3    1
     3     2     7    1
     4     3     4    1
     5     7     6    1
     6     4     5    1
     7     6     5    1
     8     5     8    1
     9     9     8    2
    10     8    10   am
    11    10    11    1
    12    15    16   ar
    13    15    14   ar
    14    16    17   ar
    15    14    13   ar
    16    11    19    1
    17    11    12    1
    18    17    18   ar
    19    13    18   ar
    20    13    12    1
    21    19    21   ar
    22    19    20   ar
