@<TRIPOS>MOLECULE
ligand_2c545ef4c1_1_run_9.pdb
 22 23 0 0 0
SMALL
GASTEIGER

@<TRIPOS>ATOM
      1    C       12.7220   46.3890  -10.6310 C.3     2  LIG2        0.0310
      2    C       12.4930   45.2080   -9.7630 C.ar    2  LIG2       -0.0225
      3    C       11.4000   44.3460   -9.9660 C.ar    2  LIG2       -0.0088
      4    C       11.1800   43.2120   -9.1480 C.ar    2  LIG2       -0.0263
      5    C       12.1050   42.9150   -8.0930 C.ar    2  LIG2       -0.0278
      6    C       11.9260   41.6740   -7.2550 C.3     2  LIG2        0.0590
      7    C       12.0840   40.3360   -8.0510 C.3     2  LIG2        0.2020
      8    N       13.4690   40.0030   -8.2030 N.am    2  LIG2       -0.1952
      9    C       14.3530   40.4270   -9.1510 C.2     2  LIG2        0.2413
     10    O       15.5000   39.9350   -9.0390 O.2     2  LIG2       -0.2733
     11    C       14.0620   41.3890  -10.2520 C.3     2  LIG2        0.0782
     12    C       13.1010   40.8150  -11.3110 C.3     2  LIG2        0.0091
     13    C       13.2140   41.7990  -12.4870 C.3     2  LIG2        0.0005
     14    C       14.6800   42.2850  -12.4700 C.3     2  LIG2        0.0005
     15    C       15.2700   41.8530  -11.1080 C.3     2  LIG2        0.0091
     16    C       11.4410   39.1780   -7.3820 C.2     2  LIG2        0.3845
     17    O       10.7750   39.2840   -6.2050 O.co2   2  LIG2       -0.2437
     18    O       11.4930   38.0420   -7.9070 O.co2   2  LIG2       -0.2437
     19    C       13.1980   43.8130   -7.8560 C.ar    2  LIG2       -0.0263
     20    C       13.3770   44.9300   -8.7060 C.ar    2  LIG2       -0.0088
     21    C       14.1660   43.6480   -6.7310 C.3     2  LIG2        0.0307
     22    C        9.9620   42.3920   -9.4370 C.3     2  LIG2        0.0307
@<TRIPOS>BOND
     1    13    14    1
     2    13    12    1
     3    14    15    1
     4    12    11    1
     5    15    11    1
     6     1     2    1
     7    11     9    1
     8     3     2   ar
     9     3     4   ar
    10     2    20   ar
    11    22     4    1
    12     9    10    2
    13     9     8   am
    14     4     5   ar
    15    20    19   ar
    16     8     7    1
    17     5    19   ar
    18     5     6    1
    19     7    16    1
    20     7     6    1
    21    18    16   ar
    22    19    21    1
    23    16    17   ar
@<TRIPOS>MOLECULE
ligand_2c545ef4c1_1_run_5.pdb
 22 23 0 0 0
SMALL
GASTEIGER

@<TRIPOS>ATOM
      1    C       13.7380   45.9880  -10.6340 C.3     2  LIG2        0.0310
      2    C       13.0810   44.8850   -9.8920 C.ar    2  LIG2       -0.0225
      3    C       11.8970   44.2870  -10.3580 C.ar    2  LIG2       -0.0088
      4    C       11.2680   43.2280   -9.6600 C.ar    2  LIG2       -0.0263
      5    C       11.8620   42.7310   -8.4520 C.ar    2  LIG2       -0.0278
      6    C       11.2450   41.5590   -7.7310 C.3     2  LIG2        0.0590
      7    C       11.7080   40.1640   -8.2650 C.3     2  LIG2        0.2020
      8    N       13.1370   40.1090   -8.3540 N.am    2  LIG2       -0.1952
      9    C       13.9150   39.4120   -9.2320 C.2     2  LIG2        0.2413
     10    O       15.1450   39.5420   -9.0420 O.2     2  LIG2       -0.2733
     11    C       13.4220   38.5530  -10.3470 C.3     2  LIG2        0.0782
     12    C       13.8580   37.0810  -10.2080 C.3     2  LIG2        0.0091
     13    C       13.5570   36.4730  -11.5880 C.3     2  LIG2        0.0005
     14    C       13.8140   37.6120  -12.5980 C.3     2  LIG2        0.0005
     15    C       13.9120   38.9170  -11.7730 C.3     2  LIG2        0.0091
     16    C       11.2950   39.0360   -7.3940 C.2     2  LIG2        0.3845
     17    O       10.6730   39.2170   -6.2020 O.co2   2  LIG2       -0.2437
     18    O       11.5110   37.8550   -7.7510 O.co2   2  LIG2       -0.2437
     19    C       13.0460   43.3650   -7.9500 C.ar    2  LIG2       -0.0263
     20    C       13.6380   44.4170   -8.6890 C.ar    2  LIG2       -0.0088
     21    C       13.6940   42.9870   -6.6580 C.3     2  LIG2        0.0307
     22    C        9.9920   42.6980  -10.2340 C.3     2  LIG2        0.0307
@<TRIPOS>BOND
     1    14    15    1
     2    14    13    1
     3    15    11    1
     4    13    12    1
     5     1     2    1
     6     3     2   ar
     7     3     4   ar
     8    11    12    1
     9    11     9    1
    10    22     4    1
    11     2    20   ar
    12     4     5   ar
    13     9    10    2
    14     9     8   am
    15    20    19   ar
    16     5    19   ar
    17     5     6    1
    18     8     7    1
    19     7     6    1
    20     7    16    1
    21    19    21    1
    22    18    16   ar
    23    16    17   ar
@<TRIPOS>MOLECULE
ligand_2c545ef4c1_1_run_12.pdb
 22 23 0 0 0
SMALL
GASTEIGER

@<TRIPOS>ATOM
      1    C       12.5670   43.5080  -13.3200 C.3     2  LIG2        0.0310
      2    C       12.7030   42.7900  -12.0290 C.ar    2  LIG2       -0.0225
      3    C       11.6110   42.6300  -11.1580 C.ar    2  LIG2       -0.0088
      4    C       11.7300   41.9370   -9.9290 C.ar    2  LIG2       -0.0263
      5    C       12.9920   41.3620   -9.5650 C.ar    2  LIG2       -0.0278
      6    C       13.1220   40.5620   -8.2930 C.3     2  LIG2        0.0590
      7    C       12.4070   39.1720   -8.3350 C.3     2  LIG2        0.2020
      8    N       13.3670   38.1100   -8.2710 N.am    2  LIG2       -0.1952
      9    C       13.8780   37.3550   -9.2860 C.2     2  LIG2        0.2413
     10    O       14.6880   36.4760   -8.9130 O.2     2  LIG2       -0.2733
     11    C       13.5570   37.5030  -10.7340 C.3     2  LIG2        0.0782
     12    C       13.4170   36.1490  -11.4580 C.3     2  LIG2        0.0091
     13    C       13.4370   36.5220  -12.9500 C.3     2  LIG2        0.0005
     14    C       14.3840   37.7370  -13.0510 C.3     2  LIG2        0.0005
     15    C       14.6040   38.2450  -11.6070 C.3     2  LIG2        0.0091
     16    C       11.4680   38.9610   -7.2050 C.2     2  LIG2        0.3845
     17    O       11.3180   39.8560   -6.1970 O.co2   2  LIG2       -0.2437
     18    O       10.7660   37.9250   -7.1570 O.co2   2  LIG2       -0.2437
     19    C       14.1190   41.5580  -10.4300 C.ar    2  LIG2       -0.0263
     20    C       13.9460   42.2530  -11.6510 C.ar    2  LIG2       -0.0088
     21    C       15.4960   41.0790  -10.1050 C.3     2  LIG2        0.0307
     22    C       10.5080   41.8650   -9.0680 C.3     2  LIG2        0.0307
@<TRIPOS>BOND
     1     1     2    1
     2    14    13    1
     3    14    15    1
     4    13    12    1
     5     2    20   ar
     6     2     3   ar
     7    20    19   ar
     8    15    11    1
     9    12    11    1
    10     3     4   ar
    11    11     9    1
    12    19    21    1
    13    19     5   ar
    14     4     5   ar
    15     4    22    1
    16     5     6    1
    17     9    10    2
    18     9     8   am
    19     7     6    1
    20     7     8    1
    21     7    16    1
    22    16    18   ar
    23    16    17   ar
