@<TRIPOS>MOLECULE
ligand_07937df439_1_run_9.pdb
 13 13 0 0 0
SMALL
GASTEIGER

@<TRIPOS>ATOM
      1    O       10.9490   39.2660   -6.7020 O.2     2  LIG2       -0.1310
      2    N       11.7270   40.1270   -7.2140 N.pl3   2  LIG2        0.0350
      3    O       12.1950   40.9250   -6.4980 O.2     2  LIG2       -0.1310
      4    C       11.9740   40.1460   -8.5910 C.3     2  LIG2        0.2015
      5    C       13.4790   39.8890   -8.8790 C.3     2  LIG2        0.1008
      6    C       13.8880   38.4660   -9.0350 C.2     2  LIG2        0.1752
      7    O       14.1940   37.8270   -7.9990 O.2     2  LIG2       -0.2913
      8    C       13.9480   37.7980  -10.3040 C.ar    2  LIG2        0.0348
      9    C       14.2900   36.4230  -10.4240 C.ar    2  LIG2        0.0028
     10    C       14.3420   35.7840  -11.6780 C.ar    2  LIG2        0.0001
     11    C       14.0550   36.5080  -12.8470 C.ar    2  LIG2        0.0000
     12    C       13.7150   37.8670  -12.7600 C.ar    2  LIG2        0.0001
     13    C       13.6630   38.5000  -11.5050 C.ar    2  LIG2        0.0028
@<TRIPOS>BOND
     1    11    12   ar
     2    11    10   ar
     3    12    13   ar
     4    10     9   ar
     5    13     8   ar
     6     9     8   ar
     7     8     6    1
     8     6     5    1
     9     6     7    2
    10     5     4    1
    11     4     2    1
    12     2     1    2
    13     2     3    2
@<TRIPOS>MOLECULE
ligand_07937df439_1_run_12.pdb
 13 13 0 0 0
SMALL
GASTEIGER

@<TRIPOS>ATOM
      1    O       11.3600   39.3250   -6.4500 O.2     2  LIG2       -0.1310
      2    N       11.6560   38.2040   -6.9660 N.pl3   2  LIG2        0.0350
      3    O       10.9510   37.3010   -6.7340 O.2     2  LIG2       -0.1310
      4    C       12.8100   38.0500   -7.7430 C.3     2  LIG2        0.2015
      5    C       12.5080   38.3610   -9.2350 C.3     2  LIG2        0.1008
      6    C       13.6850   38.6250  -10.1060 C.2     2  LIG2        0.1752
      7    O       14.3290   39.6860   -9.9160 O.2     2  LIG2       -0.2913
      8    C       14.1150   37.7310  -11.1440 C.ar    2  LIG2        0.0348
      9    C       15.2140   38.0270  -11.9950 C.ar    2  LIG2        0.0028
     10    C       15.6210   37.1370  -13.0080 C.ar    2  LIG2        0.0001
     11    C       14.9340   35.9250  -13.1950 C.ar    2  LIG2        0.0000
     12    C       13.8450   35.6070  -12.3700 C.ar    2  LIG2        0.0001
     13    C       13.4430   36.4990  -11.3600 C.ar    2  LIG2        0.0028
@<TRIPOS>BOND
     1    11    10   ar
     2    11    12   ar
     3    10     9   ar
     4    12    13   ar
     5     9     8   ar
     6    13     8   ar
     7     8     6    1
     8     6     7    2
     9     6     5    1
    10     5     4    1
    11     4     2    1
    12     2     3    2
    13     2     1    2
@<TRIPOS>MOLECULE
ligand_07937df439_1_run_8.pdb
 13 13 0 0 0
SMALL
GASTEIGER

@<TRIPOS>ATOM
      1    O       14.7690   43.2780   -7.7040 O.2     2  LIG2       -0.1310
      2    N       13.9480   43.3350   -6.7380 N.pl3   2  LIG2        0.0350
      3    O       13.7000   44.3910   -6.3030 O.2     2  LIG2       -0.1310
      4    C       13.4010   42.1700   -6.1880 C.3     2  LIG2        0.2015
      5    C       12.1760   41.6980   -7.0190 C.3     2  LIG2        0.1008
      6    C       12.0680   40.2330   -7.2650 C.2     2  LIG2        0.1752
      7    O       11.3990   39.5510   -6.4500 O.2     2  LIG2       -0.2913
      8    C       12.6870   39.5720   -8.3780 C.ar    2  LIG2        0.0348
      9    C       12.6290   38.1630   -8.5530 C.ar    2  LIG2        0.0028
     10    C       13.2420   37.5320   -9.6530 C.ar    2  LIG2        0.0001
     11    C       13.9320   38.2990  -10.6070 C.ar    2  LIG2        0.0000
     12    C       14.0070   39.6930  -10.4600 C.ar    2  LIG2        0.0001
     13    C       13.3920   40.3180   -9.3600 C.ar    2  LIG2        0.0028
@<TRIPOS>BOND
     1    11    12   ar
     2    11    10   ar
     3    12    13   ar
     4    10     9   ar
     5    13     8   ar
     6     9     8   ar
     7     8     6    1
     8     1     2    2
     9     6     5    1
    10     6     7    2
    11     5     4    1
    12     2     3    2
    13     2     4    1
