@<TRIPOS>MOLECULE
ligand_97f425cd0_1_run_9.pdb
 16 16 0 0 0
SMALL
GASTEIGER

@<TRIPOS>ATOM
      1    C       10.3880   42.1290   -9.2570 C.3     2  LIG2        0.0022
      2    C       11.8970   41.9070   -8.9520 C.3     2  LIG2        0.0280
      3    C       12.7340   42.4000  -10.1710 C.3     2  LIG2        0.0022
      4    C       12.1820   40.4140   -8.5310 C.3     2  LIG2        0.1738
      5    C       13.6830   39.9940   -8.6980 C.3     2  LIG2        0.0986
      6    C       13.9730   38.5500   -8.9440 C.2     2  LIG2        0.1752
      7    O       14.2050   37.8180   -7.9510 O.2     2  LIG2       -0.2913
      8    C       13.9600   37.9610  -10.2540 C.ar    2  LIG2        0.0348
      9    C       14.1840   36.5710  -10.4590 C.ar    2  LIG2        0.0028
     10    C       14.1810   36.0060  -11.7450 C.ar    2  LIG2        0.0001
     11    C       13.9510   36.8150  -12.8690 C.ar    2  LIG2        0.0000
     12    C       13.7180   38.1910  -12.7010 C.ar    2  LIG2        0.0001
     13    C       13.7210   38.7540  -11.4110 C.ar    2  LIG2        0.0028
     14    N       11.7770   40.1780   -7.2000 N.pl3   2  LIG2        0.0328
     15    O       10.9250   39.2820   -6.9080 O.2     2  LIG2       -0.1310
     16    O       12.2070   40.7960   -6.3060 O.2     2  LIG2       -0.1310
@<TRIPOS>BOND
     1    11    12   ar
     2    11    10   ar
     3    12    13   ar
     4    10     9   ar
     5    13     8   ar
     6     9     8   ar
     7     8     6    1
     8     3     2    1
     9     1     2    1
    10     2     4    1
    11     6     5    1
    12     6     7    2
    13     5     4    1
    14     4    14    1
    15    14    15    2
    16    14    16    2
@<TRIPOS>MOLECULE
ligand_97f425cd0_1_run_9.pdb
 16 16 0 0 0
SMALL
GASTEIGER

@<TRIPOS>ATOM
      1    C       11.5270   42.6790   -8.8100 C.3     2  LIG2        0.0022
      2    C       11.8100   41.5850   -7.7410 C.3     2  LIG2        0.0280
      3    C       13.1000   41.9690   -6.9560 C.3     2  LIG2        0.0022
      4    C       11.8480   40.1480   -8.3900 C.3     2  LIG2        0.1738
      5    C       13.2490   39.7670   -8.9810 C.3     2  LIG2        0.0986
      6    C       13.3570   39.6180  -10.4630 C.2     2  LIG2        0.1752
      7    O       13.1530   40.6320  -11.1730 O.2     2  LIG2       -0.2913
      8    C       13.7200   38.3830  -11.1000 C.ar    2  LIG2        0.0348
      9    C       13.8110   38.2630  -12.5150 C.ar    2  LIG2        0.0028
     10    C       14.1550   37.0480  -13.1310 C.ar    2  LIG2        0.0001
     11    C       14.4210   35.9120  -12.3480 C.ar    2  LIG2        0.0000
     12    C       14.3470   35.9990  -10.9480 C.ar    2  LIG2        0.0001
     13    C       14.0030   37.2190  -10.3330 C.ar    2  LIG2        0.0028
     14    N       11.4500   39.1630   -7.4600 N.pl3   2  LIG2        0.0328
     15    O       10.7070   39.4400   -6.4680 O.2     2  LIG2       -0.1310
     16    O       11.7850   38.0480   -7.5620 O.2     2  LIG2       -0.1310
@<TRIPOS>BOND
     1    10     9   ar
     2    10    11   ar
     3     9     8   ar
     4    11    12   ar
     5     7     6    2
     6     8     6    1
     7     8    13   ar
     8    12    13   ar
     9     6     5    1
    10     5     4    1
    11     1     2    1
    12     4     2    1
    13     4    14    1
    14     2     3    1
    15    16    14    2
    16    14    15    2
@<TRIPOS>MOLECULE
ligand_97f425cd0_1_run_9.pdb
 16 16 0 0 0
SMALL
GASTEIGER

@<TRIPOS>ATOM
      1    C       12.7120   41.8160   -6.7140 C.3     2  LIG2        0.0022
      2    C       12.0030   40.8480   -7.7040 C.3     2  LIG2        0.0280
      3    C       11.2140   39.7810   -6.8870 C.3     2  LIG2        0.0022
      4    C       13.0230   40.2440   -8.7440 C.3     2  LIG2        0.1738
      5    C       12.5760   38.8590   -9.3250 C.3     2  LIG2        0.0986
      6    C       13.6180   37.7980   -9.4610 C.2     2  LIG2        0.1752
      7    O       14.2390   37.4460   -8.4290 O.2     2  LIG2       -0.2913
      8    C       13.9080   37.1410  -10.7050 C.ar    2  LIG2        0.0348
      9    C       13.4210   37.6320  -11.9480 C.ar    2  LIG2        0.0028
     10    C       13.7000   36.9760  -13.1600 C.ar    2  LIG2        0.0001
     11    C       14.4780   35.8070  -13.1640 C.ar    2  LIG2        0.0000
     12    C       14.9810   35.3000  -11.9540 C.ar    2  LIG2        0.0001
     13    C       14.7010   35.9600  -10.7420 C.ar    2  LIG2        0.0028
     14    N       13.2530   41.1440   -9.8070 N.pl3   2  LIG2        0.0328
     15    O       12.3740   41.9840  -10.1760 O.2     2  LIG2       -0.1310
     16    O       14.2640   41.1590  -10.3940 O.2     2  LIG2       -0.1310
@<TRIPOS>BOND
     1    11    10   ar
     2    11    12   ar
     3    10     9   ar
     4    12    13   ar
     5     9     8   ar
     6    13     8   ar
     7     8     6    1
     8    16    14    2
     9    15    14    2
    10    14     4    1
    11     6     5    1
    12     6     7    2
    13     5     4    1
    14     4     2    1
    15     2     3    1
    16     2     1    1
