@<TRIPOS>MOLECULE
ligand_b7e5dce9e2_1_run_4.pdb
 18 19 0 0 0
SMALL
GASTEIGER

@<TRIPOS>ATOM
      1    O        9.2070   39.0500   -6.7020 O.3     2  LIG2       -0.4026
      2    N       10.4220   39.3510   -7.0750 N.am    2  LIG2       -0.2029
      3    C       11.3450   38.4050   -7.3700 C.2     2  LIG2        0.0875
      4    O       11.0280   37.1920   -7.3320 O.2     2  LIG2       -0.5395
      5    C       12.7390   38.7780   -7.7080 C.3     2  LIG2        0.0599
      6    C       12.9430   39.3800   -9.1380 C.3     2  LIG2        0.0509
      7    C       13.3800   38.3500  -10.1360 C.ar    2  LIG2       -0.0180
      8    C       13.2950   38.6200  -11.5240 C.ar    2  LIG2       -0.0039
      9    C       13.6820   37.6600  -12.4750 C.ar    2  LIG2       -0.0003
     10    C       14.1680   36.4120  -12.0540 C.ar    2  LIG2       -0.0000
     11    C       14.2660   36.1210  -10.6820 C.ar    2  LIG2       -0.0003
     12    C       13.8730   37.0830   -9.7330 C.ar    2  LIG2       -0.0039
     13    C       13.8500   40.5800   -9.2090 C.ar    2  LIG2       -0.0180
     14    C       13.3300   41.8680   -8.9270 C.ar    2  LIG2       -0.0039
     15    C       14.1420   43.0150   -9.0020 C.ar    2  LIG2       -0.0003
     16    C       15.4910   42.8950   -9.3740 C.ar    2  LIG2       -0.0000
     17    C       16.0310   41.6310   -9.6640 C.ar    2  LIG2       -0.0003
     18    C       15.2150   40.4880   -9.5890 C.ar    2  LIG2       -0.0039
@<TRIPOS>BOND
     1     9    10   ar
     2     9     8   ar
     3    10    11   ar
     4     8     7   ar
     5    11    12   ar
     6     7    12   ar
     7     7     6    1
     8    17    18   ar
     9    17    16   ar
    10    18    13   ar
    11    16    15   ar
    12    13     6    1
    13    13    14   ar
    14     6     5    1
    15    15    14   ar
    16     5     3    1
    17     3     4    2
    18     3     2   am
    19     2     1    1
@<TRIPOS>MOLECULE
ligand_b7e5dce9e2_1_run_5.pdb
 18 19 0 0 0
SMALL
GASTEIGER

@<TRIPOS>ATOM
      1    O        9.2000   39.0500   -6.7000 O.3     2  LIG2       -0.4026
      2    N       10.3450   39.5340   -7.1010 N.am    2  LIG2       -0.2029
      3    C       11.4050   38.7430   -7.3940 C.2     2  LIG2        0.0875
      4    O       11.2880   37.4970   -7.3250 O.2     2  LIG2       -0.5395
      5    C       12.7150   39.3290   -7.7650 C.3     2  LIG2        0.0599
      6    C       12.6610   40.4610   -8.8440 C.3     2  LIG2        0.0509
      7    C       13.5290   40.1650  -10.0290 C.ar    2  LIG2       -0.0180
      8    C       13.8300   38.8250  -10.3760 C.ar    2  LIG2       -0.0039
      9    C       14.6580   38.5290  -11.4730 C.ar    2  LIG2       -0.0003
     10    C       15.1950   39.5700  -12.2480 C.ar    2  LIG2       -0.0000
     11    C       14.9080   40.9080  -11.9260 C.ar    2  LIG2       -0.0003
     12    C       14.0830   41.2010  -10.8240 C.ar    2  LIG2       -0.0039
     13    C       12.9440   41.8500   -8.3350 C.ar    2  LIG2       -0.0180
     14    C       12.2140   42.9490   -8.8540 C.ar    2  LIG2       -0.0039
     15    C       12.4640   44.2620   -8.4170 C.ar    2  LIG2       -0.0003
     16    C       13.4620   44.5040   -7.4580 C.ar    2  LIG2       -0.0000
     17    C       14.2040   43.4350   -6.9320 C.ar    2  LIG2       -0.0003
     18    C       13.9520   42.1230   -7.3720 C.ar    2  LIG2       -0.0039
@<TRIPOS>BOND
     1    10    11   ar
     2    10     9   ar
     3    11    12   ar
     4     9     8   ar
     5    12     7   ar
     6     8     7   ar
     7     7     6    1
     8    14    15   ar
     9    14    13   ar
    10     6    13    1
    11     6     5    1
    12    15    16   ar
    13    13    18   ar
    14     5     3    1
    15    16    17   ar
    16     3     4    2
    17     3     2   am
    18    18    17   ar
    19     2     1    1
@<TRIPOS>MOLECULE
ligand_b7e5dce9e2_1_run_4.pdb
 18 19 0 0 0
SMALL
GASTEIGER

@<TRIPOS>ATOM
      1    O        9.2000   39.0510   -6.7000 O.3     2  LIG2       -0.4026
      2    N       10.4880   38.9950   -6.9130 N.am    2  LIG2       -0.2029
      3    C       11.1370   39.9100   -7.6720 C.2     2  LIG2        0.0875
      4    O       10.5040   40.8760   -8.1600 O.2     2  LIG2       -0.5395
      5    C       12.5840   39.7710   -7.9630 C.3     2  LIG2        0.0599
      6    C       13.0480   40.3450   -9.3420 C.3     2  LIG2        0.0509
      7    C       13.5250   39.2750  -10.2770 C.ar    2  LIG2       -0.0180
      8    C       13.7410   37.9580   -9.8040 C.ar    2  LIG2       -0.0039
      9    C       14.2060   36.9450  -10.6610 C.ar    2  LIG2       -0.0003
     10    C       14.4600   37.2330  -12.0130 C.ar    2  LIG2       -0.0000
     11    C       14.2510   38.5320  -12.5070 C.ar    2  LIG2       -0.0003
     12    C       13.7890   39.5440  -11.6450 C.ar    2  LIG2       -0.0039
     13    C       14.0650   41.4530   -9.2700 C.ar    2  LIG2       -0.0180
     14    C       15.4330   41.1660   -9.5090 C.ar    2  LIG2       -0.0039
     15    C       16.4140   42.1720   -9.4310 C.ar    2  LIG2       -0.0003
     16    C       16.0450   43.4860   -9.1000 C.ar    2  LIG2       -0.0000
     17    C       14.6980   43.7970   -8.8540 C.ar    2  LIG2       -0.0003
     18    C       13.7210   42.7880   -8.9310 C.ar    2  LIG2       -0.0039
@<TRIPOS>BOND
     1    11    10   ar
     2    11    12   ar
     3    10     9   ar
     4    12     7   ar
     5     9     8   ar
     6     7     8   ar
     7     7     6    1
     8    14    15   ar
     9    14    13   ar
    10    15    16   ar
    11     6    13    1
    12     6     5    1
    13    13    18   ar
    14    16    17   ar
    15    18    17   ar
    16     4     3    2
    17     5     3    1
    18     3     2   am
    19     2     1    1
