@<TRIPOS>MOLECULE
ligand_153698eba3_1_run_7.pdb
 13 13 0 0 0
SMALL
GASTEIGER

@<TRIPOS>ATOM
      1    C       13.5010   37.7140   -8.3160 C.3     2  LIG2        0.0071
      2    C       12.7530   38.9320   -7.6990 C.3     2  LIG2        0.0497
      3    C       12.6580   40.1440   -8.6890 C.3     2  LIG2        0.0327
      4    C       13.3490   41.3850   -8.2360 C.ar    2  LIG2       -0.0218
      5    C       12.8130   42.1530   -7.1740 C.ar    2  LIG2       -0.0043
      6    C       13.4530   43.3270   -6.7370 C.ar    2  LIG2       -0.0003
      7    C       14.6480   43.7440   -7.3470 C.ar    2  LIG2       -0.0000
      8    C       15.1950   42.9920   -8.4020 C.ar    2  LIG2       -0.0003
      9    C       14.5480   41.8240   -8.8470 C.ar    2  LIG2       -0.0043
     10    C       11.4230   38.4890   -7.1740 C.2     2  LIG2        0.0868
     11    O       11.2410   37.3360   -6.7130 O.2     2  LIG2       -0.5396
     12    N       10.3800   39.3550   -7.1730 N.am    2  LIG2       -0.2030
     13    O        9.2010   39.0520   -6.7000 O.3     2  LIG2       -0.4026
@<TRIPOS>BOND
     1     9     8   ar
     2     9     4   ar
     3     3     4    1
     4     3     2    1
     5     8     7   ar
     6     1     2    1
     7     4     5   ar
     8     2    10    1
     9     7     6   ar
    10     5     6   ar
    11    10    12   am
    12    10    11    2
    13    12    13    1
@<TRIPOS>MOLECULE
ligand_153698eba3_1_run_2.pdb
 13 13 0 0 0
SMALL
GASTEIGER

@<TRIPOS>ATOM
      1    C       13.7100   37.6900   -7.7800 C.3     2  LIG2        0.0071
      2    C       12.7470   38.9130   -7.7220 C.3     2  LIG2        0.0497
      3    C       12.7120   39.7150   -9.0680 C.3     2  LIG2        0.0327
      4    C       13.8500   40.6560   -9.2730 C.ar    2  LIG2       -0.0218
      5    C       14.9660   40.2670  -10.0530 C.ar    2  LIG2       -0.0043
      6    C       16.0470   41.1440  -10.2540 C.ar    2  LIG2       -0.0003
      7    C       16.0220   42.4300   -9.6910 C.ar    2  LIG2       -0.0000
      8    C       14.9210   42.8340   -8.9140 C.ar    2  LIG2       -0.0003
      9    C       13.8440   41.9510   -8.7030 C.ar    2  LIG2       -0.0043
     10    C       11.3950   38.4650   -7.2620 C.2     2  LIG2        0.0868
     11    O       11.1560   37.2670   -6.9740 O.2     2  LIG2       -0.5396
     12    N       10.3970   39.3710   -7.1310 N.am    2  LIG2       -0.2030
     13    O        9.2020   39.0610   -6.7030 O.3     2  LIG2       -0.4026
@<TRIPOS>BOND
     1     6     5   ar
     2     6     7   ar
     3     5     4   ar
     4     7     8   ar
     5     4     3    1
     6     4     9   ar
     7     3     2    1
     8     8     9   ar
     9     1     2    1
    10     2    10    1
    11    10    12   am
    12    10    11    2
    13    12    13    1
@<TRIPOS>MOLECULE
ligand_153698eba3_1_run_11.pdb
 13 13 0 0 0
SMALL
GASTEIGER

@<TRIPOS>ATOM
      1    C       13.7040   38.2340   -8.2520 C.3     2  LIG2        0.0071
      2    C       12.6020   39.3250   -8.1050 C.3     2  LIG2        0.0497
      3    C       12.2960   40.0570   -9.4570 C.3     2  LIG2        0.0327
      4    C       12.3930   41.5440   -9.4070 C.ar    2  LIG2       -0.0218
      5    C       13.6600   42.1770   -9.4220 C.ar    2  LIG2       -0.0043
      6    C       13.7670   43.5780   -9.3740 C.ar    2  LIG2       -0.0003
      7    C       12.6070   44.3700   -9.3260 C.ar    2  LIG2       -0.0000
      8    C       11.3420   43.7580   -9.3110 C.ar    2  LIG2       -0.0003
      9    C       11.2350   42.3550   -9.3470 C.ar    2  LIG2       -0.0043
     10    C       11.3880   38.7280   -7.4660 C.2     2  LIG2        0.0868
     11    O       11.3620   37.5360   -7.0740 O.2     2  LIG2       -0.5396
     12    N       10.2830   39.4910   -7.2800 N.am    2  LIG2       -0.2030
     13    O        9.2000   39.0500   -6.6990 O.3     2  LIG2       -0.4026
@<TRIPOS>BOND
     1     3     4    1
     2     3     2    1
     3     5     4   ar
     4     5     6   ar
     5     4     9   ar
     6     6     7   ar
     7     9     8   ar
     8     7     8   ar
     9     1     2    1
    10     2    10    1
    11    10    12   am
    12    10    11    2
    13    12    13    1
