@<TRIPOS>MOLECULE
ligand_9bb265fe2c_1_run_11.pdb
 21 22 0 0 0
SMALL
GASTEIGER

@<TRIPOS>ATOM
      1    C       14.2340   43.1560   -5.5110 C.3     2  LIG2        0.0310
      2    C       13.5680   43.0190   -6.8260 C.ar    2  LIG2       -0.0222
      3    C       12.6580   41.9660   -7.0540 C.ar    2  LIG2       -0.0088
      4    C       12.0040   41.7870   -8.3010 C.ar    2  LIG2       -0.0241
      5    C       12.2790   42.7110   -9.3570 C.ar    2  LIG2       -0.0258
      6    C       11.6820   42.6670  -10.7210 C.3     2  LIG2        0.0307
      7    C       13.1950   43.7640   -9.1190 C.ar    2  LIG2       -0.0049
      8    C       13.8270   43.9200   -7.8760 C.ar    2  LIG2       -0.0046
      9    C       11.0540   40.6310   -8.3930 C.3     2  LIG2        0.0593
     10    C       11.6560   39.3090   -7.8040 C.3     2  LIG2        0.2020
     11    N       12.3460   38.4350   -8.7070 N.am    2  LIG2       -0.1952
     12    C       13.4200   38.6900   -9.5080 C.2     2  LIG2        0.2413
     13    O       13.9430   39.8270   -9.5620 O.2     2  LIG2       -0.2733
     14    C       13.9920   37.6030  -10.3430 C.3     2  LIG2        0.0782
     15    C       14.7290   38.1040  -11.6030 C.3     2  LIG2        0.0091
     16    C       14.8300   36.8520  -12.4920 C.3     2  LIG2        0.0005
     17    C       13.5390   36.0520  -12.2190 C.3     2  LIG2        0.0005
     18    C       12.9610   36.5770  -10.8850 C.3     2  LIG2        0.0091
     19    C       10.6730   38.5080   -7.0500 C.2     2  LIG2        0.3845
     20    O        9.4790   39.0400   -6.7010 O.co2   2  LIG2       -0.2437
     21    O       10.9320   37.3340   -6.7020 O.co2   2  LIG2       -0.2437
@<TRIPOS>BOND
     1    16    17    1
     2    16    15    1
     3    17    18    1
     4    15    14    1
     5    18    14    1
     6     6     5    1
     7    14    12    1
     8    13    12    2
     9    12    11   am
    10     5     7   ar
    11     5     4   ar
    12     7     8   ar
    13    11    10    1
    14     9     4    1
    15     9    10    1
    16     4     3   ar
    17     8     2   ar
    18    10    19    1
    19     3     2   ar
    20    19    21   ar
    21    19    20   ar
    22     2     1    1
@<TRIPOS>MOLECULE
ligand_9bb265fe2c_1_run_11.pdb
 21 22 0 0 0
SMALL
GASTEIGER

@<TRIPOS>ATOM
      1    C       13.6690   42.5460  -12.0700 C.3     2  LIG2        0.0310
      2    C       13.5570   42.3780  -10.6030 C.ar    2  LIG2       -0.0222
      3    C       12.5140   41.6030  -10.0560 C.ar    2  LIG2       -0.0088
      4    C       12.3580   41.4230   -8.6570 C.ar    2  LIG2       -0.0241
      5    C       13.2960   42.0480   -7.7780 C.ar    2  LIG2       -0.0258
      6    C       13.2770   41.9620   -6.2910 C.3     2  LIG2        0.0307
      7    C       14.3380   42.8260   -8.3370 C.ar    2  LIG2       -0.0049
      8    C       14.4720   42.9860   -9.7240 C.ar    2  LIG2       -0.0046
      9    C       11.2100   40.5620   -8.2210 C.3     2  LIG2        0.0593
     10    C       11.6700   39.1430   -7.7410 C.3     2  LIG2        0.2020
     11    N       12.2490   38.2680   -8.7190 N.am    2  LIG2       -0.1952
     12    C       13.4830   38.3100   -9.2940 C.2     2  LIG2        0.2413
     13    O       14.3040   39.2180   -9.0240 O.2     2  LIG2       -0.2733
     14    C       13.8790   37.2620  -10.2700 C.3     2  LIG2        0.0782
     15    C       14.8910   37.7440  -11.3310 C.3     2  LIG2        0.0091
     16    C       14.8020   36.6770  -12.4350 C.3     2  LIG2        0.0005
     17    C       13.3270   36.2240  -12.4480 C.3     2  LIG2        0.0005
     18    C       12.7130   36.6600  -11.0980 C.3     2  LIG2        0.0091
     19    C       10.6140   38.4000   -7.0280 C.2     2  LIG2        0.3845
     20    O        9.4500   39.0080   -6.7000 O.co2   2  LIG2       -0.2437
     21    O       10.7820   37.2050   -6.6940 O.co2   2  LIG2       -0.2437
@<TRIPOS>BOND
     1    17    16    1
     2    17    18    1
     3    16    15    1
     4     1     2    1
     5    15    14    1
     6    18    14    1
     7     2     3   ar
     8     2     8   ar
     9    14    12    1
    10     3     4   ar
    11     8     7   ar
    12    12    13    2
    13    12    11   am
    14    11    10    1
    15     4     9    1
    16     4     5   ar
    17     7     5   ar
    18     9    10    1
    19     5     6    1
    20    10    19    1
    21    19    20   ar
    22    19    21   ar
@<TRIPOS>MOLECULE
ligand_9bb265fe2c_1_run_8.pdb
 21 22 0 0 0
SMALL
GASTEIGER

@<TRIPOS>ATOM
      1    C       13.1230   35.8640  -12.4100 C.3     2  LIG2        0.0310
      2    C       13.6200   36.9800  -11.5740 C.ar    2  LIG2       -0.0222
      3    C       13.1230   37.1630  -10.2680 C.ar    2  LIG2       -0.0088
      4    C       13.5600   38.2250   -9.4340 C.ar    2  LIG2       -0.0241
      5    C       14.5400   39.1350   -9.9400 C.ar    2  LIG2       -0.0258
      6    C       15.1030   40.2990   -9.2000 C.3     2  LIG2        0.0307
      7    C       15.0310   38.9440  -11.2540 C.ar    2  LIG2       -0.0049
      8    C       14.5850   37.8850  -12.0570 C.ar    2  LIG2       -0.0046
      9    C       12.9530   38.2880   -8.0640 C.3     2  LIG2        0.0593
     10    C       11.5440   38.9740   -8.0610 C.3     2  LIG2        0.2020
     11    N       11.4980   40.3940   -7.8630 N.am    2  LIG2       -0.1952
     12    C       11.7310   41.3990   -8.7520 C.2     2  LIG2        0.2413
     13    O       12.0690   41.1650   -9.9360 O.2     2  LIG2       -0.2733
     14    C       11.5880   42.8130   -8.3210 C.3     2  LIG2        0.0782
     15    C       12.0170   43.8410   -9.3900 C.3     2  LIG2        0.0091
     16    C       12.2010   45.1440   -8.5940 C.3     2  LIG2        0.0005
     17    C       12.7320   44.7080   -7.2120 C.3     2  LIG2        0.0005
     18    C       12.4080   43.2040   -7.0630 C.3     2  LIG2        0.0091
     19    C       10.5940   38.3470   -7.1220 C.2     2  LIG2        0.3845
     20    O        9.5000   39.0230   -6.7010 O.co2   2  LIG2       -0.2437
     21    O       10.7920   37.1920   -6.6820 O.co2   2  LIG2       -0.2437
@<TRIPOS>BOND
     1     1     2    1
     2     8     2   ar
     3     8     7   ar
     4     2     3   ar
     5     7     5   ar
     6     3     4   ar
     7     5     4   ar
     8     5     6    1
     9    13    12    2
    10     4     9    1
    11    15    16    1
    12    15    14    1
    13    12    14    1
    14    12    11   am
    15    16    17    1
    16    14    18    1
    17     9    10    1
    18    10    11    1
    19    10    19    1
    20    17    18    1
    21    19    20   ar
    22    19    21   ar
