@<TRIPOS>MOLECULE
ligand_a8294a0a1c_1_run_3.pdb
 14 14 0 0 0
SMALL
GASTEIGER

@<TRIPOS>ATOM
      1    C       12.6240   41.2650   -9.1700 C.3     2  LIG2        0.0322
      2    C       12.8320   40.0860   -8.1790 C.3     2  LIG2        0.1739
      3    C       12.3640   38.7200   -8.7730 C.3     2  LIG2        0.0986
      4    C       13.5060   37.8130   -9.0760 C.2     2  LIG2        0.1752
      5    O       14.2500   37.5480   -8.1000 O.2     2  LIG2       -0.2913
      6    C       13.8010   37.2510  -10.3650 C.ar    2  LIG2        0.0348
      7    C       14.7000   36.1640  -10.5410 C.ar    2  LIG2        0.0028
      8    C       15.0040   35.6640  -11.8210 C.ar    2  LIG2        0.0001
      9    C       14.4070   36.2320  -12.9580 C.ar    2  LIG2        0.0000
     10    C       13.4940   37.2890  -12.8130 C.ar    2  LIG2        0.0001
     11    C       13.1970   37.7880  -11.5340 C.ar    2  LIG2        0.0028
     12    N       12.1960   40.3510   -6.9510 N.pl3   2  LIG2        0.0328
     13    O       11.3130   39.5690   -6.4800 O.2     2  LIG2       -0.1310
     14    O       12.4600   41.2940   -6.3140 O.2     2  LIG2       -0.1310
@<TRIPOS>BOND
     1     9    10   ar
     2     9     8   ar
     3    10    11   ar
     4     8     7   ar
     5    11     6   ar
     6     7     6   ar
     7     6     4    1
     8     1     2    1
     9     4     3    1
    10     4     5    2
    11     3     2    1
    12     2    12    1
    13    12    13    2
    14    12    14    2
@<TRIPOS>MOLECULE
ligand_a8294a0a1c_1_run_3.pdb
 14 14 0 0 0
SMALL
GASTEIGER

@<TRIPOS>ATOM
      1    C       11.4460   38.0500   -7.2000 C.3     2  LIG2        0.0322
      2    C       12.1310   39.1940   -7.9970 C.3     2  LIG2        0.1739
      3    C       13.4560   38.7320   -8.6830 C.3     2  LIG2        0.0986
      4    C       13.4200   38.9100  -10.1610 C.2     2  LIG2        0.1752
      5    O       13.0790   40.0530  -10.5530 O.2     2  LIG2       -0.2913
      6    C       13.7310   37.8930  -11.1270 C.ar    2  LIG2        0.0348
      7    C       13.6940   38.1290  -12.5290 C.ar    2  LIG2        0.0028
      8    C       13.9590   37.1010  -13.4530 C.ar    2  LIG2        0.0001
      9    C       14.2800   35.8120  -12.9980 C.ar    2  LIG2        0.0000
     10    C       14.3500   35.5560  -11.6190 C.ar    2  LIG2        0.0001
     11    C       14.0800   36.5840  -10.7000 C.ar    2  LIG2        0.0028
     12    N       12.3500   40.3130   -7.1700 N.pl3   2  LIG2        0.0328
     13    O       13.2540   41.1670   -7.4360 O.2     2  LIG2       -0.1310
     14    O       11.7080   40.5060   -6.2140 O.2     2  LIG2       -0.1310
@<TRIPOS>BOND
     1     8     9   ar
     2     8     7   ar
     3     9    10   ar
     4     7     6   ar
     5    10    11   ar
     6     6    11   ar
     7     6     4    1
     8     5     4    2
     9     4     3    1
    10     3     2    1
    11     2     1    1
    12     2    12    1
    13    13    12    2
    14    12    14    2
@<TRIPOS>MOLECULE
ligand_a8294a0a1c_1_run_4.pdb
 14 14 0 0 0
SMALL
GASTEIGER

@<TRIPOS>ATOM
      1    C       12.4890   41.1790   -7.2940 C.3     2  LIG2        0.0322
      2    C       12.6130   39.7990   -7.9960 C.3     2  LIG2        0.1739
      3    C       12.4510   39.9020   -9.5460 C.3     2  LIG2        0.0986
      4    C       13.7210   39.6130  -10.2690 C.2     2  LIG2        0.1752
      5    O       14.5890   40.5170  -10.2040 O.2     2  LIG2       -0.2913
      6    C       13.9980   38.4150  -11.0120 C.ar    2  LIG2        0.0348
      7    C       13.1360   37.2850  -10.9980 C.ar    2  LIG2        0.0028
      8    C       13.4570   36.1090  -11.7000 C.ar    2  LIG2        0.0001
      9    C       14.6450   36.0370  -12.4460 C.ar    2  LIG2        0.0000
     10    C       15.5030   37.1460  -12.5000 C.ar    2  LIG2        0.0001
     11    C       15.1810   38.3180  -11.7940 C.ar    2  LIG2        0.0028
     12    N       11.6970   38.8790   -7.4500 N.pl3   2  LIG2        0.0328
     13    O       10.9540   39.1880   -6.4660 O.2     2  LIG2       -0.1310
     14    O       11.5790   37.8000   -7.8830 O.2     2  LIG2       -0.1310
@<TRIPOS>BOND
     1    10     9   ar
     2    10    11   ar
     3     9     8   ar
     4    11     6   ar
     5     8     7   ar
     6     6     7   ar
     7     6     4    1
     8     4     5    2
     9     4     3    1
    10     3     2    1
    11     2    12    1
    12     2     1    1
    13    14    12    2
    14    12    13    2
