@<TRIPOS>MOLECULE
ligand_d6ba968dbe_1_run_1.pdb
 14 14 0 0 0
SMALL
GASTEIGER

@<TRIPOS>ATOM
      1    C       11.4360   41.4520   -9.0700 C.3     2  LIG2        0.0322
      2    C       11.9900   40.0860   -8.5740 C.3     2  LIG2        0.1739
      3    C       13.5080   39.8930   -8.9110 C.3     2  LIG2        0.0986
      4    C       13.8940   38.4700   -9.1380 C.2     2  LIG2        0.1752
      5    O       14.2010   37.8140   -8.1120 O.2     2  LIG2       -0.2913
      6    C       13.9500   37.8360  -10.4240 C.ar    2  LIG2        0.0348
      7    C       13.6940   38.5430  -11.6290 C.ar    2  LIG2        0.0028
      8    C       13.7660   37.9080  -12.8830 C.ar    2  LIG2        0.0001
      9    C       14.0760   36.5420  -12.9640 C.ar    2  LIG2        0.0000
     10    C       14.3180   35.8130  -11.7880 C.ar    2  LIG2        0.0001
     11    C       14.2600   36.4530  -10.5370 C.ar    2  LIG2        0.0028
     12    N       11.7330   39.9270   -7.2000 N.pl3   2  LIG2        0.0328
     13    O       10.7010   39.3120   -6.7820 O.2     2  LIG2       -0.1310
     14    O       12.4240   40.3970   -6.3830 O.2     2  LIG2       -0.1310
@<TRIPOS>BOND
     1     9     8   ar
     2     9    10   ar
     3     8     7   ar
     4    10    11   ar
     5     7     6   ar
     6    11     6   ar
     7     6     4    1
     8     4     3    1
     9     4     5    2
    10     1     2    1
    11     3     2    1
    12     2    12    1
    13    12    13    2
    14    12    14    2
@<TRIPOS>MOLECULE
ligand_d6ba968dbe_1_run_4.pdb
 14 14 0 0 0
SMALL
GASTEIGER

@<TRIPOS>ATOM
      1    C       12.6800   41.0680   -7.1950 C.3     2  LIG2        0.0322
      2    C       12.2940   39.8960   -8.1410 C.3     2  LIG2        0.1739
      3    C       13.5400   39.2360   -8.8250 C.3     2  LIG2        0.0986
      4    C       13.4840   39.2530  -10.3150 C.2     2  LIG2        0.1752
      5    O       13.1870   40.3560  -10.8410 O.2     2  LIG2       -0.2913
      6    C       13.7250   38.1140  -11.1540 C.ar    2  LIG2        0.0348
      7    C       14.0140   36.8290  -10.6220 C.ar    2  LIG2        0.0028
      8    C       14.2340   35.7200  -11.4580 C.ar    2  LIG2        0.0001
      9    C       14.1920   35.8700  -12.8530 C.ar    2  LIG2        0.0000
     10    C       13.9250   37.1320  -13.4090 C.ar    2  LIG2        0.0001
     11    C       13.6900   38.2360  -12.5690 C.ar    2  LIG2        0.0028
     12    N       11.5120   38.9510   -7.4500 N.pl3   2  LIG2        0.0328
     13    O       10.6990   39.2990   -6.5370 O.2     2  LIG2       -0.1310
     14    O       11.6130   37.8030   -7.6460 O.2     2  LIG2       -0.1310
@<TRIPOS>BOND
     1    10     9   ar
     2    10    11   ar
     3     9     8   ar
     4    11     6   ar
     5     8     7   ar
     6     6     7   ar
     7     6     4    1
     8     5     4    2
     9     4     3    1
    10     3     2    1
    11     2    12    1
    12     2     1    1
    13    14    12    2
    14    12    13    2
@<TRIPOS>MOLECULE
ligand_d6ba968dbe_1_run_2.pdb
 14 14 0 0 0
SMALL
GASTEIGER

@<TRIPOS>ATOM
      1    C       12.4820   40.6150   -7.6050 C.3     2  LIG2        0.0322
      2    C       12.0840   39.2060   -8.1270 C.3     2  LIG2        0.1739
      3    C       13.3260   38.3140   -8.4670 C.3     2  LIG2        0.0986
      4    C       13.5750   38.1660   -9.9300 C.2     2  LIG2        0.1752
      5    O       12.9360   37.2500  -10.5060 O.2     2  LIG2       -0.2913
      6    C       14.4870   38.9740  -10.6880 C.ar    2  LIG2        0.0348
      7    C       15.1980   40.0590  -10.1100 C.ar    2  LIG2        0.0028
      8    C       16.0990   40.8330  -10.8640 C.ar    2  LIG2        0.0001
      9    C       16.2980   40.5540  -12.2250 C.ar    2  LIG2        0.0000
     10    C       15.5970   39.4980  -12.8290 C.ar    2  LIG2        0.0001
     11    C       14.7080   38.7170  -12.0680 C.ar    2  LIG2        0.0028
     12    N       11.2190   38.5750   -7.2130 N.pl3   2  LIG2        0.0328
     13    O       10.4520   39.2450   -6.4510 O.2     2  LIG2       -0.1310
     14    O       11.2040   37.4150   -7.0760 O.2     2  LIG2       -0.1310
@<TRIPOS>BOND
     1    10     9   ar
     2    10    11   ar
     3     9     8   ar
     4    11     6   ar
     5     8     7   ar
     6     6     7   ar
     7     6     4    1
     8     5     4    2
     9     4     3    1
    10     3     2    1
    11     2     1    1
    12     2    12    1
    13    12    14    2
    14    12    13    2
